research/ai4chem/closed_loop/ipf_cycle1/docking_1vjy/cand_0006_dock.pdbqt
 OpenBabel03012623503D

 35 36  0  0  0  0  0  0  0  0999 V2000
   16.3770   69.6700    8.0760 C   0  0  0  0  0  3  0  0  0  0  0  0
   15.6770   68.6900    7.4900 C   0  0  0  0  0  3  0  0  0  0  0  0
   16.8510   69.5640    9.3570 N   0  0  0  0  0  0  0  0  0  0  0  0
   18.2290   68.8730   11.0530 N   0  0  0  0  0  0  0  0  0  0  0  0
   17.9660   68.8130    9.6970 C   0  0  0  0  0  0  0  0  0  0  0  0
   18.6410   68.1820    8.8900 O   0  0  0  0  0  0  0  0  0  0  0  0
   17.5570   69.3350   11.6430 H   0  0  0  0  0  0  0  0  0  0  0  0
   16.4520   70.1680   10.0620 H   0  0  0  0  0  0  0  0  0  0  0  0
   19.3370   68.3130   11.6350 C   0  0  0  0  0  3  0  0  0  0  0  0
   20.5460   68.8880   11.6570 C   0  0  0  0  0  3  0  0  0  0  0  0
   20.9350   70.2500   11.1410 C   0  0  0  0  0  2  0  0  0  0  0  0
   21.9520   70.2620    9.9680 C   0  0  0  0  0  0  0  0  0  0  0  0
   22.8010   68.9790    9.9450 C   0  0  0  0  0  1  0  0  0  0  0  0
   21.2320   70.4120    8.6170 C   0  0  0  0  0  1  0  0  0  0  0  0
   22.8900   71.4700   10.1590 C   0  0  0  0  0  1  0  0  0  0  0  0
   15.1590   68.7680    6.0840 C   0  0  0  0  0  2  0  0  0  0  0  0
   15.9320   67.8460    5.2400 N   0  0  0  0  0  0  0  0  0  0  0  0
   16.9970   68.2740    4.4450 C   0  0  0  0  0  3  0  0  0  0  0  0
   18.2600   68.5880    4.7660 C   0  0  0  0  0  3  0  0  0  0  0  0
   19.2140   69.0290    3.7470 C   0  0  0  0  0  0  0  0  0  0  0  0
   18.7610   69.3640    2.4670 C   0  0  0  0  0  3  0  0  0  0  0  0
   20.5810   69.1160    4.0400 C   0  0  0  0  0  3  0  0  0  0  0  0
   19.6660   69.7870    1.4900 C   0  0  0  0  0  3  0  0  0  0  0  0
   21.4850   69.5350    3.0600 C   0  0  0  0  0  3  0  0  0  0  0  0
   21.0270   69.8700    1.7860 C   0  0  0  0  0  3  0  0  0  0  0  0
   15.8510   66.4240    5.6570 C   0  0  0  0  0  2  0  0  0  0  0  0
   14.5210   65.7860    5.3070 C   0  0  0  0  0  0  0  0  0  0  0  0
   14.4120   64.9400    4.1950 C   0  0  0  0  0  3  0  0  0  0  0  0
   13.3790   66.0110    6.0890 C   0  0  0  0  0  3  0  0  0  0  0  0
   13.1870   64.3530    3.8600 C   0  0  0  0  0  3  0  0  0  0  0  0
   12.1540   65.4240    5.7530 C   0  0  0  0  0  3  0  0  0  0  0  0
   12.0470   64.5890    4.6370 C   0  0  0  0  0  0  0  0  0  0  0  0
   10.4560   63.8330    4.2080 P   0  0  0  0  0  0  0  0  0  0  0  0
    9.8270   64.9710    3.6440 H   0  0  0  0  0  0  0  0  0  0  0  0
   10.8440   63.2440    2.9810 H   0  0  0  0  0  0  0  0  0  0  0  0
  1  3  1  0  0  0  0
  2  1  2  0  0  0  0
  3  5  1  0  0  0  0
  3  8  1  0  0  0  0
  4  9  1  0  0  0  0
  4  7  1  0  0  0  0
  5  4  1  0  0  0  0
  6  5  2  0  0  0  0
  9 10  2  0  0  0  0
 11 10  1  0  0  0  0
 12 15  1  0  0  0  0
 12 11  1  0  0  0  0
 13 12  1  0  0  0  0
 14 12  1  0  0  0  0
 16  2  1  0  0  0  0
 17 26  1  0  0  0  0
 17 16  1  0  0  0  0
 18 19  2  0  0  0  0
 18 17  1  0  0  0  0
 20 22  1  0  0  0  0
 20 19  1  0  0  0  0
 21 20  2  0  0  0  0
 23 25  2  0  0  0  0
 23 21  1  0  0  0  0
 24 22  2  0  0  0  0
 25 24  1  0  0  0  0
 27 26  1  0  0  0  0
 27 29  1  0  0  0  0
 28 27  2  0  0  0  0
 30 28  1  0  0  0  0
 30 32  2  0  0  0  0
 31 29  2  0  0  0  0
 32 31  1  0  0  0  0
 33 32  1  0  0  0  0
 34 33  1  0  0  0  0
 35 33  1  0  0  0  0
M  END
>  <MODEL>
1

>  <REMARK>
 VINA RESULT:    -9.120      0.000      0.000
 INTER + INTRA:         -15.886
 INTER:                 -14.718
 INTRA:                  -1.168
 UNBOUND:                -1.168
 SMILES CC(C)(C)C/C=C\NC(=O)N/C=C/CN(/C=C/c1ccccc1)Cc1ccc(P)cc1
 SMILES IDX 12 1 13 2 11 3 8 4 9 5 10 6 7 9 6 10 5 11 2 12 1 13 3 14
 SMILES IDX 4 15 14 16 15 17 16 18 17 19 18 20 19 21 23 22 20 23 22 24
 SMILES IDX 21 25 24 26 25 27 26 28 31 29 27 30 30 31 28 32 29 33
 H PARENT 8 7 11 8 29 34 29 35

>  <TORSDO>
F 11

$$$$
research/ai4chem/closed_loop/ipf_cycle1/docking_1vjy/cand_0006_dock.pdbqt
 OpenBabel03012623503D

 35 36  0  0  0  0  0  0  0  0999 V2000
   16.7310   69.8390    7.8560 C   0  0  0  0  0  3  0  0  0  0  0  0
   16.6920   68.8840    6.9180 C   0  0  0  0  0  3  0  0  0  0  0  0
   16.9010   69.5500    9.1850 N   0  0  0  0  0  0  0  0  0  0  0  0
   17.8990   68.6550   11.0450 N   0  0  0  0  0  0  0  0  0  0  0  0
   17.9620   68.8010    9.6710 C   0  0  0  0  0  0  0  0  0  0  0  0
   18.8530   68.3340    8.9680 O   0  0  0  0  0  0  0  0  0  0  0  0
   17.0740   68.9890   11.5150 H   0  0  0  0  0  0  0  0  0  0  0  0
   16.3040   70.0170    9.8520 H   0  0  0  0  0  0  0  0  0  0  0  0
   18.8810   68.0560   11.7890 C   0  0  0  0  0  3  0  0  0  0  0  0
   20.0830   68.5970   12.0220 C   0  0  0  0  0  3  0  0  0  0  0  0
   20.5850   69.9560   11.6060 C   0  0  0  0  0  2  0  0  0  0  0  0
   21.7620   69.9600   10.5940 C   0  0  0  0  0  0  0  0  0  0  0  0
   22.1970   68.5300   10.2300 C   0  0  0  0  0  1  0  0  0  0  0  0
   21.3790   70.7120    9.3070 C   0  0  0  0  0  1  0  0  0  0  0  0
   22.9540   70.6860   11.2480 C   0  0  0  0  0  1  0  0  0  0  0  0
   16.5240   69.1690    5.4530 C   0  0  0  0  0  2  0  0  0  0  0  0
   16.2690   67.9040    4.7490 N   0  0  0  0  0  0  0  0  0  0  0  0
   15.1180   67.1440    4.9670 C   0  0  0  0  0  3  0  0  0  0  0  0
   14.7680   65.9330    4.5120 C   0  0  0  0  0  3  0  0  0  0  0  0
   13.4840   65.3310    4.8720 C   0  0  0  0  0  0  0  0  0  0  0  0
   12.7850   65.7950    5.9910 C   0  0  0  0  0  3  0  0  0  0  0  0
   12.9450   64.2870    4.1080 C   0  0  0  0  0  3  0  0  0  0  0  0
   11.5580   65.2260    6.3390 C   0  0  0  0  0  3  0  0  0  0  0  0
   11.7200   63.7150    4.4610 C   0  0  0  0  0  3  0  0  0  0  0  0
   11.0280   64.1850    5.5760 C   0  0  0  0  0  3  0  0  0  0  0  0
   17.0200   67.7520    3.4780 C   0  0  0  0  0  2  0  0  0  0  0  0
   18.4060   68.3650    3.5400 C   0  0  0  0  0  0  0  0  0  0  0  0
   18.8060   69.3070    2.5830 C   0  0  0  0  0  3  0  0  0  0  0  0
   19.3080   68.0200    4.5560 C   0  0  0  0  0  3  0  0  0  0  0  0
   20.0860   69.8720    2.6270 C   0  0  0  0  0  3  0  0  0  0  0  0
   20.5880   68.5840    4.5990 C   0  0  0  0  0  3  0  0  0  0  0  0
   20.9880   69.5170    3.6370 C   0  0  0  0  0  0  0  0  0  0  0  0
   22.6480   70.2430    3.6990 P   0  0  0  0  0  0  0  0  0  0  0  0
   22.4410   71.1500    4.7680 H   0  0  0  0  0  0  0  0  0  0  0  0
   23.2740   69.2340    4.4680 H   0  0  0  0  0  0  0  0  0  0  0  0
  1  3  1  0  0  0  0
  2  1  2  0  0  0  0
  3  5  1  0  0  0  0
  3  8  1  0  0  0  0
  4  7  1  0  0  0  0
  4  9  1  0  0  0  0
  5  4  1  0  0  0  0
  6  5  2  0  0  0  0
  9 10  2  0  0  0  0
 11 10  1  0  0  0  0
 12 15  1  0  0  0  0
 12 11  1  0  0  0  0
 13 12  1  0  0  0  0
 14 12  1  0  0  0  0
 16  2  1  0  0  0  0
 17 18  1  0  0  0  0
 17 16  1  0  0  0  0
 19 20  1  0  0  0  0
 19 18  2  0  0  0  0
 20 21  1  0  0  0  0
 21 23  2  0  0  0  0
 22 24  1  0  0  0  0
 22 20  2  0  0  0  0
 24 25  2  0  0  0  0
 25 23  1  0  0  0  0
 26 27  1  0  0  0  0
 26 17  1  0  0  0  0
 27 29  1  0  0  0  0
 28 30  1  0  0  0  0
 28 27  2  0  0  0  0
 29 31  2  0  0  0  0
 30 32  2  0  0  0  0
 32 33  1  0  0  0  0
 32 31  1  0  0  0  0
 33 35  1  0  0  0  0
 33 34  1  0  0  0  0
M  END
>  <MODEL>
2

>  <REMARK>
 VINA RESULT:    -8.905      2.623      6.181
 INTER + INTRA:         -15.539
 INTER:                 -14.869
 INTRA:                  -0.670
 UNBOUND:                -1.168
 SMILES CC(C)(C)C/C=C\NC(=O)N/C=C/CN(/C=C/c1ccccc1)Cc1ccc(P)cc1
 SMILES IDX 12 1 13 2 11 3 8 4 9 5 10 6 7 9 6 10 5 11 2 12 1 13 3 14
 SMILES IDX 4 15 14 16 15 17 16 18 17 19 18 20 19 21 23 22 20 23 22 24
 SMILES IDX 21 25 24 26 25 27 26 28 31 29 27 30 30 31 28 32 29 33
 H PARENT 8 7 11 8 29 34 29 35

>  <TORSDO>
F 11

$$$$
research/ai4chem/closed_loop/ipf_cycle1/docking_1vjy/cand_0006_dock.pdbqt
 OpenBabel03012623503D

 35 36  0  0  0  0  0  0  0  0999 V2000
   17.1810   67.4580    7.7670 C   0  0  0  0  0  3  0  0  0  0  0  0
   17.6440   67.8990    6.5900 C   0  0  0  0  0  3  0  0  0  0  0  0
   17.2680   68.2060    8.9120 N   0  0  0  0  0  0  0  0  0  0  0  0
   18.1250   68.9110   10.9180 N   0  0  0  0  0  0  0  0  0  0  0  0
   18.2660   68.0330    9.8600 C   0  0  0  0  0  0  0  0  0  0  0  0
   19.1680   67.2070    9.7640 O   0  0  0  0  0  0  0  0  0  0  0  0
   17.2940   69.4790   10.9510 H   0  0  0  0  0  0  0  0  0  0  0  0
   16.6600   69.0070    9.0040 H   0  0  0  0  0  0  0  0  0  0  0  0
   19.0380   69.0280   11.9340 C   0  0  0  0  0  3  0  0  0  0  0  0
   20.2540   69.5680   11.7920 C   0  0  0  0  0  3  0  0  0  0  0  0
   20.8460   70.2140   10.5660 C   0  0  0  0  0  2  0  0  0  0  0  0
   22.3910   70.3570   10.5570 C   0  0  0  0  0  0  0  0  0  0  0  0
   23.0210   69.5930    9.3790 C   0  0  0  0  0  1  0  0  0  0  0  0
   22.8080   71.8360   10.4760 C   0  0  0  0  0  1  0  0  0  0  0  0
   22.9350   69.7670   11.8730 C   0  0  0  0  0  1  0  0  0  0  0  0
   17.5480   67.1120    5.3150 C   0  0  0  0  0  2  0  0  0  0  0  0
   16.3770   67.5750    4.5570 N   0  0  0  0  0  0  0  0  0  0  0  0
   15.1340   66.9450    4.6410 C   0  0  0  0  0  3  0  0  0  0  0  0
   14.7940   65.7320    5.1000 C   0  0  0  0  0  3  0  0  0  0  0  0
   13.4040   65.2760    5.0790 C   0  0  0  0  0  0  0  0  0  0  0  0
   12.5100   65.7170    6.0600 C   0  0  0  0  0  3  0  0  0  0  0  0
   12.9570   64.3940    4.0860 C   0  0  0  0  0  3  0  0  0  0  0  0
   11.1820   65.2860    6.0450 C   0  0  0  0  0  3  0  0  0  0  0  0
   11.6290   63.9600    4.0760 C   0  0  0  0  0  3  0  0  0  0  0  0
   10.7430   64.4070    5.0550 C   0  0  0  0  0  3  0  0  0  0  0  0
   16.4560   68.9900    4.1180 C   0  0  0  0  0  2  0  0  0  0  0  0
   17.7480   69.3070    3.3890 C   0  0  0  0  0  0  0  0  0  0  0  0
   17.8000   69.2640    1.9900 C   0  0  0  0  0  3  0  0  0  0  0  0
   18.9080   69.6620    4.0910 C   0  0  0  0  0  3  0  0  0  0  0  0
   18.9900   69.5470    1.3100 C   0  0  0  0  0  3  0  0  0  0  0  0
   20.0990   69.9440    3.4110 C   0  0  0  0  0  3  0  0  0  0  0  0
   20.1500   69.8910    2.0150 C   0  0  0  0  0  0  0  0  0  0  0  0
   21.6950   70.2570    1.1400 P   0  0  0  0  0  0  0  0  0  0  0  0
   21.1670   70.4120   -0.1660 H   0  0  0  0  0  0  0  0  0  0  0  0
   21.7700   71.6370    1.4440 H   0  0  0  0  0  0  0  0  0  0  0  0
  1  3  1  0  0  0  0
  2  1  2  0  0  0  0
  3  8  1  0  0  0  0
  3  5  1  0  0  0  0
  4  7  1  0  0  0  0
  4  9  1  0  0  0  0
  5  4  1  0  0  0  0
  6  5  2  0  0  0  0
 10  9  2  0  0  0  0
 11 10  1  0  0  0  0
 12 11  1  0  0  0  0
 12 15  1  0  0  0  0
 13 12  1  0  0  0  0
 14 12  1  0  0  0  0
 16  2  1  0  0  0  0
 17 18  1  0  0  0  0
 17 16  1  0  0  0  0
 18 19  2  0  0  0  0
 20 19  1  0  0  0  0
 20 21  1  0  0  0  0
 22 20  2  0  0  0  0
 23 21  2  0  0  0  0
 24 22  1  0  0  0  0
 24 25  2  0  0  0  0
 25 23  1  0  0  0  0
 26 17  1  0  0  0  0
 27 29  1  0  0  0  0
 27 26  1  0  0  0  0
 28 27  2  0  0  0  0
 30 28  1  0  0  0  0
 30 32  2  0  0  0  0
 31 29  2  0  0  0  0
 32 31  1  0  0  0  0
 33 35  1  0  0  0  0
 33 32  1  0  0  0  0
 34 33  1  0  0  0  0
M  END
>  <MODEL>
3

>  <REMARK>
 VINA RESULT:    -8.239      2.664      6.233
 INTER + INTRA:         -14.465
 INTER:                 -14.036
 INTRA:                  -0.429
 UNBOUND:                -1.168
 SMILES CC(C)(C)C/C=C\NC(=O)N/C=C/CN(/C=C/c1ccccc1)Cc1ccc(P)cc1
 SMILES IDX 12 1 13 2 11 3 8 4 9 5 10 6 7 9 6 10 5 11 2 12 1 13 3 14
 SMILES IDX 4 15 14 16 15 17 16 18 17 19 18 20 19 21 23 22 20 23 22 24
 SMILES IDX 21 25 24 26 25 27 26 28 31 29 27 30 30 31 28 32 29 33
 H PARENT 8 7 11 8 29 34 29 35

>  <TORSDO>
F 11

$$$$
research/ai4chem/closed_loop/ipf_cycle1/docking_1vjy/cand_0006_dock.pdbqt
 OpenBabel03012623503D

 35 36  0  0  0  0  0  0  0  0999 V2000
   15.3580   68.0020    5.7710 C   0  0  0  0  0  3  0  0  0  0  0  0
   16.6150   68.4580    5.6970 C   0  0  0  0  0  3  0  0  0  0  0  0
   14.7740   67.3010    4.7480 N   0  0  0  0  0  0  0  0  0  0  0  0
   14.1130   65.4600    3.5520 N   0  0  0  0  0  0  0  0  0  0  0  0
   14.7630   65.9150    4.6840 C   0  0  0  0  0  0  0  0  0  0  0  0
   15.2610   65.1840    5.5350 O   0  0  0  0  0  0  0  0  0  0  0  0
   13.8290   66.1410    2.8670 H   0  0  0  0  0  0  0  0  0  0  0  0
   14.2110   67.8110    4.0840 H   0  0  0  0  0  0  0  0  0  0  0  0
   13.8620   64.1360    3.3020 C   0  0  0  0  0  3  0  0  0  0  0  0
   12.6610   63.5610    3.4350 C   0  0  0  0  0  3  0  0  0  0  0  0
   11.3530   64.2160    3.7970 C   0  0  0  0  0  2  0  0  0  0  0  0
   11.0570   64.3400    5.3150 C   0  0  0  0  0  0  0  0  0  0  0  0
   11.9610   63.4100    6.1430 C   0  0  0  0  0  1  0  0  0  0  0  0
   11.2490   65.7880    5.7980 C   0  0  0  0  0  1  0  0  0  0  0  0
    9.5880   63.9370    5.5530 C   0  0  0  0  0  1  0  0  0  0  0  0
   17.2880   69.2150    6.8050 C   0  0  0  0  0  2  0  0  0  0  0  0
   18.7350   68.9660    6.7410 N   0  0  0  0  0  0  0  0  0  0  0  0
   19.5880   69.2200    7.8170 C   0  0  0  0  0  3  0  0  0  0  0  0
   20.2320   70.3380    8.1800 C   0  0  0  0  0  3  0  0  0  0  0  0
   21.0940   70.3660    9.3620 C   0  0  0  0  0  0  0  0  0  0  0  0
   20.7340   69.6460   10.5050 C   0  0  0  0  0  3  0  0  0  0  0  0
   22.2790   71.1130    9.3630 C   0  0  0  0  0  3  0  0  0  0  0  0
   21.5530   69.6670   11.6360 C   0  0  0  0  0  3  0  0  0  0  0  0
   23.0950   71.1370   10.4980 C   0  0  0  0  0  3  0  0  0  0  0  0
   22.7310   70.4140   11.6330 C   0  0  0  0  0  3  0  0  0  0  0  0
   19.1400   67.9910    5.6980 C   0  0  0  0  0  2  0  0  0  0  0  0
   19.9150   68.6340    4.5640 C   0  0  0  0  0  0  0  0  0  0  0  0
   19.2940   68.8800    3.3320 C   0  0  0  0  0  3  0  0  0  0  0  0
   21.2570   69.0090    4.7230 C   0  0  0  0  0  3  0  0  0  0  0  0
   20.0040   69.4650    2.2780 C   0  0  0  0  0  3  0  0  0  0  0  0
   21.9670   69.5930    3.6680 C   0  0  0  0  0  3  0  0  0  0  0  0
   21.3460   69.8290    2.4370 C   0  0  0  0  0  0  0  0  0  0  0  0
   22.2720   70.5860    1.0740 P   0  0  0  0  0  0  0  0  0  0  0  0
   23.5750   70.1770    1.4520 H   0  0  0  0  0  0  0  0  0  0  0  0
   22.0630   69.5720    0.1090 H   0  0  0  0  0  0  0  0  0  0  0  0
  2  1  2  0  0  0  0
  2 16  1  0  0  0  0
  3  1  1  0  0  0  0
  4  5  1  0  0  0  0
  5  3  1  0  0  0  0
  5  6  2  0  0  0  0
  7  4  1  0  0  0  0
  8  3  1  0  0  0  0
  9 10  2  0  0  0  0
  9  4  1  0  0  0  0
 10 11  1  0  0  0  0
 11 12  1  0  0  0  0
 12 15  1  0  0  0  0
 12 14  1  0  0  0  0
 12 13  1  0  0  0  0
 17 16  1  0  0  0  0
 17 18  1  0  0  0  0
 18 19  2  0  0  0  0
 19 20  1  0  0  0  0
 20 22  2  0  0  0  0
 20 21  1  0  0  0  0
 21 23  2  0  0  0  0
 22 24  1  0  0  0  0
 24 25  2  0  0  0  0
 25 23  1  0  0  0  0
 26 17  1  0  0  0  0
 27 29  1  0  0  0  0
 27 26  1  0  0  0  0
 28 27  2  0  0  0  0
 30 32  2  0  0  0  0
 30 28  1  0  0  0  0
 31 29  2  0  0  0  0
 32 31  1  0  0  0  0
 33 34  1  0  0  0  0
 33 32  1  0  0  0  0
 35 33  1  0  0  0  0
M  END
>  <MODEL>
4

>  <REMARK>
 VINA RESULT:    -8.120      3.135      9.010
 INTER + INTRA:         -14.272
 INTER:                 -13.037
 INTRA:                  -1.236
 UNBOUND:                -1.168
 SMILES CC(C)(C)C/C=C\NC(=O)N/C=C/CN(/C=C/c1ccccc1)Cc1ccc(P)cc1
 SMILES IDX 12 1 13 2 11 3 8 4 9 5 10 6 7 9 6 10 5 11 2 12 1 13 3 14
 SMILES IDX 4 15 14 16 15 17 16 18 17 19 18 20 19 21 23 22 20 23 22 24
 SMILES IDX 21 25 24 26 25 27 26 28 31 29 27 30 30 31 28 32 29 33
 H PARENT 8 7 11 8 29 34 29 35

>  <TORSDO>
F 11

$$$$
research/ai4chem/closed_loop/ipf_cycle1/docking_1vjy/cand_0006_dock.pdbqt
 OpenBabel03012623503D

 35 36  0  0  0  0  0  0  0  0999 V2000
   17.2300   68.8970    9.3100 C   0  0  0  0  0  3  0  0  0  0  0  0
   16.6560   69.4780    8.2480 C   0  0  0  0  0  3  0  0  0  0  0  0
   18.5020   69.2080    9.7140 N   0  0  0  0  0  0  0  0  0  0  0  0
   20.7910   69.0880    9.7790 N   0  0  0  0  0  0  0  0  0  0  0  0
   19.6350   68.5930    9.2030 C   0  0  0  0  0  0  0  0  0  0  0  0
   19.6130   67.7240    8.3370 O   0  0  0  0  0  0  0  0  0  0  0  0
   20.6950   69.7270   10.5510 H   0  0  0  0  0  0  0  0  0  0  0  0
   18.6270   70.0140   10.3090 H   0  0  0  0  0  0  0  0  0  0  0  0
   22.0510   68.7340    9.3740 C   0  0  0  0  0  3  0  0  0  0  0  0
   22.7090   69.3190    8.3660 C   0  0  0  0  0  3  0  0  0  0  0  0
   22.2720   70.4950    7.5310 C   0  0  0  0  0  2  0  0  0  0  0  0
   21.4510   70.1540    6.2590 C   0  0  0  0  0  0  0  0  0  0  0  0
   19.9980   70.6460    6.3770 C   0  0  0  0  0  1  0  0  0  0  0  0
   22.0920   70.7750    5.0060 C   0  0  0  0  0  1  0  0  0  0  0  0
   21.4390   68.6210    6.0930 C   0  0  0  0  0  1  0  0  0  0  0  0
   15.2600   69.1710    7.7900 C   0  0  0  0  0  2  0  0  0  0  0  0
   15.3250   68.2320    6.6610 N   0  0  0  0  0  0  0  0  0  0  0  0
   15.9470   68.5550    5.4540 C   0  0  0  0  0  3  0  0  0  0  0  0
   17.1490   68.2160    4.9680 C   0  0  0  0  0  3  0  0  0  0  0  0
   17.5990   68.6900    3.6590 C   0  0  0  0  0  0  0  0  0  0  0  0
   18.9620   68.8960    3.4220 C   0  0  0  0  0  3  0  0  0  0  0  0
   16.6770   68.9450    2.6360 C   0  0  0  0  0  3  0  0  0  0  0  0
   19.3990   69.3480    2.1750 C   0  0  0  0  0  3  0  0  0  0  0  0
   17.1150   69.4020    1.3900 C   0  0  0  0  0  3  0  0  0  0  0  0
   18.4750   69.6020    1.1610 C   0  0  0  0  0  3  0  0  0  0  0  0
   15.1550   66.8090    7.0420 C   0  0  0  0  0  2  0  0  0  0  0  0
   14.0210   66.1330    6.2950 C   0  0  0  0  0  0  0  0  0  0  0  0
   14.2860   65.3480    5.1650 C   0  0  0  0  0  3  0  0  0  0  0  0
   12.6920   66.2630    6.7220 C   0  0  0  0  0  3  0  0  0  0  0  0
   13.2450   64.7280    4.4650 C   0  0  0  0  0  3  0  0  0  0  0  0
   11.6510   65.6440    6.0210 C   0  0  0  0  0  3  0  0  0  0  0  0
   11.9190   64.8690    4.8880 C   0  0  0  0  0  0  0  0  0  0  0  0
   10.5650   64.0690    3.9840 P   0  0  0  0  0  0  0  0  0  0  0  0
   10.7690   64.6760    2.7200 H   0  0  0  0  0  0  0  0  0  0  0  0
   11.2230   62.8530    3.6830 H   0  0  0  0  0  0  0  0  0  0  0  0
  1  3  1  0  0  0  0
  2  1  2  0  0  0  0
  3  8  1  0  0  0  0
  4  7  1  0  0  0  0
  5  3  1  0  0  0  0
  5  4  1  0  0  0  0
  6  5  2  0  0  0  0
  9  4  1  0  0  0  0
 10  9  2  0  0  0  0
 11 10  1  0  0  0  0
 12 13  1  0  0  0  0
 12 11  1  0  0  0  0
 14 12  1  0  0  0  0
 15 12  1  0  0  0  0
 16  2  1  0  0  0  0
 17 26  1  0  0  0  0
 17 16  1  0  0  0  0
 18 17  1  0  0  0  0
 19 18  2  0  0  0  0
 20 19  1  0  0  0  0
 21 20  1  0  0  0  0
 22 20  2  0  0  0  0
 23 21  2  0  0  0  0
 24 22  1  0  0  0  0
 25 24  2  0  0  0  0
 25 23  1  0  0  0  0
 27 29  1  0  0  0  0
 27 26  1  0  0  0  0
 28 27  2  0  0  0  0
 30 32  2  0  0  0  0
 30 28  1  0  0  0  0
 31 29  2  0  0  0  0
 32 31  1  0  0  0  0
 33 32  1  0  0  0  0
 34 33  1  0  0  0  0
 35 33  1  0  0  0  0
M  END
>  <MODEL>
5

>  <REMARK>
 VINA RESULT:    -8.109      1.453      2.597
 INTER + INTRA:         -14.255
 INTER:                 -12.482
 INTRA:                  -1.773
 UNBOUND:                -1.168
 SMILES CC(C)(C)C/C=C\NC(=O)N/C=C/CN(/C=C/c1ccccc1)Cc1ccc(P)cc1
 SMILES IDX 12 1 13 2 11 3 8 4 9 5 10 6 7 9 6 10 5 11 2 12 1 13 3 14
 SMILES IDX 4 15 14 16 15 17 16 18 17 19 18 20 19 21 23 22 20 23 22 24
 SMILES IDX 21 25 24 26 25 27 26 28 31 29 27 30 30 31 28 32 29 33
 H PARENT 8 7 11 8 29 34 29 35

>  <TORSDO>
F 11

$$$$
research/ai4chem/closed_loop/ipf_cycle1/docking_1vjy/cand_0006_dock.pdbqt
 OpenBabel03012623503D

 35 36  0  0  0  0  0  0  0  0999 V2000
   15.5030   68.3510    5.4680 C   0  0  0  0  0  3  0  0  0  0  0  0
   16.6830   68.2840    6.0970 C   0  0  0  0  0  3  0  0  0  0  0  0
   15.1660   67.4930    4.4540 N   0  0  0  0  0  0  0  0  0  0  0  0
   14.6310   65.4980    3.4610 N   0  0  0  0  0  0  0  0  0  0  0  0
   14.9580   66.1350    4.6440 C   0  0  0  0  0  0  0  0  0  0  0  0
   15.0430   65.5720    5.7300 O   0  0  0  0  0  0  0  0  0  0  0  0
   14.6870   66.0310    2.6080 H   0  0  0  0  0  0  0  0  0  0  0  0
   14.9260   67.8900    3.5570 H   0  0  0  0  0  0  0  0  0  0  0  0
   14.2660   64.1780    3.3860 C   0  0  0  0  0  3  0  0  0  0  0  0
   13.0210   63.7310    3.5890 C   0  0  0  0  0  3  0  0  0  0  0  0
   11.7760   64.5380    3.8550 C   0  0  0  0  0  2  0  0  0  0  0  0
   11.2160   64.4580    5.3000 C   0  0  0  0  0  0  0  0  0  0  0  0
   11.3970   65.7900    6.0490 C   0  0  0  0  0  1  0  0  0  0  0  0
    9.7240   64.0840    5.2930 C   0  0  0  0  0  1  0  0  0  0  0  0
   11.9910   63.3610    6.0550 C   0  0  0  0  0  1  0  0  0  0  0  0
   17.0760   69.1970    7.2220 C   0  0  0  0  0  2  0  0  0  0  0  0
   18.4610   69.6420    7.0130 N   0  0  0  0  0  0  0  0  0  0  0  0
   19.0800   69.5990    5.7620 C   0  0  0  0  0  3  0  0  0  0  0  0
   20.2170   70.1590    5.3260 C   0  0  0  0  0  3  0  0  0  0  0  0
   20.6700   69.9810    3.9460 C   0  0  0  0  0  0  0  0  0  0  0  0
   19.7350   69.9280    2.9070 C   0  0  0  0  0  3  0  0  0  0  0  0
   22.0340   69.8580    3.6520 C   0  0  0  0  0  3  0  0  0  0  0  0
   20.1600   69.7590    1.5880 C   0  0  0  0  0  3  0  0  0  0  0  0
   22.4570   69.6840    2.3320 C   0  0  0  0  0  3  0  0  0  0  0  0
   21.5200   69.6350    1.3010 C   0  0  0  0  0  3  0  0  0  0  0  0
   18.9650   70.5760    8.0500 C   0  0  0  0  0  2  0  0  0  0  0  0
   20.0060   69.9420    8.9530 C   0  0  0  0  0  0  0  0  0  0  0  0
   20.1030   68.5480    9.0520 C   0  0  0  0  0  3  0  0  0  0  0  0
   20.9000   70.7290    9.6930 C   0  0  0  0  0  3  0  0  0  0  0  0
   21.0560   67.9550    9.8890 C   0  0  0  0  0  3  0  0  0  0  0  0
   21.8510   70.1360   10.5310 C   0  0  0  0  0  3  0  0  0  0  0  0
   21.9390   68.7440   10.6340 C   0  0  0  0  0  0  0  0  0  0  0  0
   23.1740   67.9830   11.7220 P   0  0  0  0  0  0  0  0  0  0  0  0
   22.2930   67.2740   12.5770 H   0  0  0  0  0  0  0  0  0  0  0  0
   23.5090   66.8830   10.8970 H   0  0  0  0  0  0  0  0  0  0  0  0
  1  2  2  0  0  0  0
  2 16  1  0  0  0  0
  3  5  1  0  0  0  0
  3  1  1  0  0  0  0
  4  5  1  0  0  0  0
  5  6  2  0  0  0  0
  7  4  1  0  0  0  0
  8  3  1  0  0  0  0
  9  4  1  0  0  0  0
  9 10  2  0  0  0  0
 10 11  1  0  0  0  0
 11 12  1  0  0  0  0
 12 13  1  0  0  0  0
 12 15  1  0  0  0  0
 14 12  1  0  0  0  0
 17 16  1  0  0  0  0
 17 26  1  0  0  0  0
 18 17  1  0  0  0  0
 19 18  2  0  0  0  0
 20 19  1  0  0  0  0
 21 20  2  0  0  0  0
 22 20  1  0  0  0  0
 23 21  1  0  0  0  0
 24 22  2  0  0  0  0
 25 23  2  0  0  0  0
 25 24  1  0  0  0  0
 26 27  1  0  0  0  0
 27 28  2  0  0  0  0
 27 29  1  0  0  0  0
 28 30  1  0  0  0  0
 29 31  2  0  0  0  0
 30 32  2  0  0  0  0
 31 32  1  0  0  0  0
 32 33  1  0  0  0  0
 33 34  1  0  0  0  0
 35 33  1  0  0  0  0
M  END
>  <MODEL>
6

>  <REMARK>
 VINA RESULT:    -7.891      3.303      8.557
 INTER + INTRA:         -13.903
 INTER:                 -12.703
 INTRA:                  -1.200
 UNBOUND:                -1.168
 SMILES CC(C)(C)C/C=C\NC(=O)N/C=C/CN(/C=C/c1ccccc1)Cc1ccc(P)cc1
 SMILES IDX 12 1 13 2 11 3 8 4 9 5 10 6 7 9 6 10 5 11 2 12 1 13 3 14
 SMILES IDX 4 15 14 16 15 17 16 18 17 19 18 20 19 21 23 22 20 23 22 24
 SMILES IDX 21 25 24 26 25 27 26 28 31 29 27 30 30 31 28 32 29 33
 H PARENT 8 7 11 8 29 34 29 35

>  <TORSDO>
F 11

$$$$
research/ai4chem/closed_loop/ipf_cycle1/docking_1vjy/cand_0006_dock.pdbqt
 OpenBabel03012623503D

 35 36  0  0  0  0  0  0  0  0999 V2000
   18.1970   67.1690    9.7760 C   0  0  0  0  0  3  0  0  0  0  0  0
   17.6120   66.9880    8.5850 C   0  0  0  0  0  3  0  0  0  0  0  0
   19.4820   67.6310    9.8960 N   0  0  0  0  0  0  0  0  0  0  0  0
   21.2110   69.1320    9.7750 N   0  0  0  0  0  0  0  0  0  0  0  0
   19.8610   68.9230    9.5620 C   0  0  0  0  0  0  0  0  0  0  0  0
   19.0880   69.7780    9.1410 O   0  0  0  0  0  0  0  0  0  0  0  0
   21.7760   68.3370   10.0260 H   0  0  0  0  0  0  0  0  0  0  0  0
   20.1530   67.0480   10.3750 H   0  0  0  0  0  0  0  0  0  0  0  0
   21.8210   70.3510    9.6330 C   0  0  0  0  0  3  0  0  0  0  0  0
   22.5820   70.6920    8.5850 C   0  0  0  0  0  3  0  0  0  0  0  0
   22.8680   69.8870    7.3430 C   0  0  0  0  0  2  0  0  0  0  0  0
   21.7420   69.8710    6.2760 C   0  0  0  0  0  0  0  0  0  0  0  0
   21.0260   68.5090    6.2320 C   0  0  0  0  0  1  0  0  0  0  0  0
   20.7060   70.9740    6.5500 C   0  0  0  0  0  1  0  0  0  0  0  0
   22.3830   70.1330    4.8980 C   0  0  0  0  0  1  0  0  0  0  0  0
   16.2020   66.5000    8.4210 C   0  0  0  0  0  2  0  0  0  0  0  0
   15.7100   66.9030    7.0950 N   0  0  0  0  0  0  0  0  0  0  0  0
   14.7390   66.1750    6.4040 C   0  0  0  0  0  3  0  0  0  0  0  0
   13.4070   66.3130    6.3580 C   0  0  0  0  0  3  0  0  0  0  0  0
   12.5790   65.4100    5.5590 C   0  0  0  0  0  0  0  0  0  0  0  0
   13.1330   64.7430    4.4610 C   0  0  0  0  0  3  0  0  0  0  0  0
   11.2290   65.2080    5.8770 C   0  0  0  0  0  3  0  0  0  0  0  0
   12.3490   63.8790    3.6940 C   0  0  0  0  0  3  0  0  0  0  0  0
   10.4450   64.3480    5.1050 C   0  0  0  0  0  3  0  0  0  0  0  0
   11.0050   63.6840    4.0150 C   0  0  0  0  0  3  0  0  0  0  0  0
   15.9170   68.3380    6.7790 C   0  0  0  0  0  2  0  0  0  0  0  0
   16.4930   68.5550    5.3930 C   0  0  0  0  0  0  0  0  0  0  0  0
   15.6820   68.4180    4.2590 C   0  0  0  0  0  3  0  0  0  0  0  0
   17.8380   68.9110    5.2140 C   0  0  0  0  0  3  0  0  0  0  0  0
   16.2070   68.6090    2.9760 C   0  0  0  0  0  3  0  0  0  0  0  0
   18.3630   69.1000    3.9310 C   0  0  0  0  0  3  0  0  0  0  0  0
   17.5530   68.9540    2.8010 C   0  0  0  0  0  0  0  0  0  0  0  0
   18.2400   69.2010    1.1410 P   0  0  0  0  0  0  0  0  0  0  0  0
   19.6120   69.0310    1.4540 H   0  0  0  0  0  0  0  0  0  0  0  0
   18.0300   67.8920    0.6460 H   0  0  0  0  0  0  0  0  0  0  0  0
  1  3  1  0  0  0  0
  2  1  2  0  0  0  0
  3  8  1  0  0  0  0
  4  7  1  0  0  0  0
  5  4  1  0  0  0  0
  5  3  1  0  0  0  0
  6  5  2  0  0  0  0
  9  4  1  0  0  0  0
 10  9  2  0  0  0  0
 11 10  1  0  0  0  0
 12 14  1  0  0  0  0
 12 11  1  0  0  0  0
 13 12  1  0  0  0  0
 15 12  1  0  0  0  0
 16  2  1  0  0  0  0
 17 16  1  0  0  0  0
 18 17  1  0  0  0  0
 19 18  2  0  0  0  0
 20 22  1  0  0  0  0
 20 19  1  0  0  0  0
 21 20  2  0  0  0  0
 23 25  2  0  0  0  0
 23 21  1  0  0  0  0
 24 22  2  0  0  0  0
 25 24  1  0  0  0  0
 26 17  1  0  0  0  0
 27 26  1  0  0  0  0
 28 27  2  0  0  0  0
 29 27  1  0  0  0  0
 30 28  1  0  0  0  0
 31 29  2  0  0  0  0
 32 30  2  0  0  0  0
 32 31  1  0  0  0  0
 33 34  1  0  0  0  0
 33 32  1  0  0  0  0
 35 33  1  0  0  0  0
M  END
>  <MODEL>
7

>  <REMARK>
 VINA RESULT:    -7.528      2.470      6.042
 INTER + INTRA:         -13.316
 INTER:                 -11.908
 INTRA:                  -1.408
 UNBOUND:                -1.168
 SMILES CC(C)(C)C/C=C\NC(=O)N/C=C/CN(/C=C/c1ccccc1)Cc1ccc(P)cc1
 SMILES IDX 12 1 13 2 11 3 8 4 9 5 10 6 7 9 6 10 5 11 2 12 1 13 3 14
 SMILES IDX 4 15 14 16 15 17 16 18 17 19 18 20 19 21 23 22 20 23 22 24
 SMILES IDX 21 25 24 26 25 27 26 28 31 29 27 30 30 31 28 32 29 33
 H PARENT 8 7 11 8 29 34 29 35

>  <TORSDO>
F 11

$$$$
research/ai4chem/closed_loop/ipf_cycle1/docking_1vjy/cand_0006_dock.pdbqt
 OpenBabel03012623503D

 35 36  0  0  0  0  0  0  0  0999 V2000
   20.6360   68.0070    6.4580 C   0  0  0  0  0  3  0  0  0  0  0  0
   19.6420   67.2000    6.8520 C   0  0  0  0  0  3  0  0  0  0  0  0
   20.9690   68.1630    5.1380 N   0  0  0  0  0  0  0  0  0  0  0  0
   20.9820   69.1280    3.0590 N   0  0  0  0  0  0  0  0  0  0  0  0
   20.4960   69.2030    4.3510 C   0  0  0  0  0  0  0  0  0  0  0  0
   19.7480   70.0860    4.7570 O   0  0  0  0  0  0  0  0  0  0  0  0
   21.5070   68.3090    2.8000 H   0  0  0  0  0  0  0  0  0  0  0  0
   21.6960   67.5730    4.7590 H   0  0  0  0  0  0  0  0  0  0  0  0
   20.7610   70.0920    2.1090 C   0  0  0  0  0  3  0  0  0  0  0  0
   19.7140   70.0980    1.2750 C   0  0  0  0  0  3  0  0  0  0  0  0
   18.5510   69.1390    1.2370 C   0  0  0  0  0  2  0  0  0  0  0  0
   17.2900   69.5760    2.0280 C   0  0  0  0  0  0  0  0  0  0  0  0
   16.0040   69.3200    1.2240 C   0  0  0  0  0  1  0  0  0  0  0  0
   17.1980   68.8350    3.3730 C   0  0  0  0  0  1  0  0  0  0  0  0
   17.4000   71.0880    2.3100 C   0  0  0  0  0  1  0  0  0  0  0  0
   19.2420   67.0200    8.2880 C   0  0  0  0  0  2  0  0  0  0  0  0
   17.9380   67.6630    8.5030 N   0  0  0  0  0  0  0  0  0  0  0  0
   16.7560   67.1610    7.9540 C   0  0  0  0  0  3  0  0  0  0  0  0
   16.0730   67.5250    6.8600 C   0  0  0  0  0  3  0  0  0  0  0  0
   14.8320   66.8490    6.4810 C   0  0  0  0  0  0  0  0  0  0  0  0
   14.8200   65.9700    5.3930 C   0  0  0  0  0  3  0  0  0  0  0  0
   13.6480   67.0750    7.1960 C   0  0  0  0  0  3  0  0  0  0  0  0
   13.6400   65.3210    5.0260 C   0  0  0  0  0  3  0  0  0  0  0  0
   12.4670   66.4280    6.8250 C   0  0  0  0  0  3  0  0  0  0  0  0
   12.4640   65.5510    5.7410 C   0  0  0  0  0  3  0  0  0  0  0  0
   17.8790   68.5360    9.7010 C   0  0  0  0  0  2  0  0  0  0  0  0
   19.1840   69.2610    9.9630 C   0  0  0  0  0  0  0  0  0  0  0  0
   19.8450   69.1100   11.1890 C   0  0  0  0  0  3  0  0  0  0  0  0
   19.7660   70.0830    8.9870 C   0  0  0  0  0  3  0  0  0  0  0  0
   21.0470   69.7820   11.4420 C   0  0  0  0  0  3  0  0  0  0  0  0
   20.9670   70.7560    9.2410 C   0  0  0  0  0  3  0  0  0  0  0  0
   21.6190   70.6100   10.4690 C   0  0  0  0  0  0  0  0  0  0  0  0
   23.1740   71.4850   10.7910 P   0  0  0  0  0  0  0  0  0  0  0  0
   23.1090   71.5160   12.2060 H   0  0  0  0  0  0  0  0  0  0  0  0
   24.0460   70.3740   10.6980 H   0  0  0  0  0  0  0  0  0  0  0  0
  1  2  2  0  0  0  0
  2 16  1  0  0  0  0
  3  1  1  0  0  0  0
  4  5  1  0  0  0  0
  5  6  2  0  0  0  0
  5  3  1  0  0  0  0
  7  4  1  0  0  0  0
  8  3  1  0  0  0  0
  9  4  1  0  0  0  0
 10  9  2  0  0  0  0
 11 10  1  0  0  0  0
 11 12  1  0  0  0  0
 12 15  1  0  0  0  0
 12 14  1  0  0  0  0
 13 12  1  0  0  0  0
 16 17  1  0  0  0  0
 17 26  1  0  0  0  0
 18 17  1  0  0  0  0
 19 18  2  0  0  0  0
 20 19  1  0  0  0  0
 20 22  1  0  0  0  0
 21 20  2  0  0  0  0
 23 21  1  0  0  0  0
 23 25  2  0  0  0  0
 24 22  2  0  0  0  0
 25 24  1  0  0  0  0
 26 27  1  0  0  0  0
 27 28  1  0  0  0  0
 28 30  2  0  0  0  0
 29 31  1  0  0  0  0
 29 27  2  0  0  0  0
 31 32  2  0  0  0  0
 32 33  1  0  0  0  0
 32 30  1  0  0  0  0
 33 34  1  0  0  0  0
 35 33  1  0  0  0  0
M  END
>  <MODEL>
8

>  <REMARK>
 VINA RESULT:    -7.468      3.636      8.562
 INTER + INTRA:         -13.219
 INTER:                 -12.103
 INTRA:                  -1.117
 UNBOUND:                -1.168
 SMILES CC(C)(C)C/C=C\NC(=O)N/C=C/CN(/C=C/c1ccccc1)Cc1ccc(P)cc1
 SMILES IDX 12 1 13 2 11 3 8 4 9 5 10 6 7 9 6 10 5 11 2 12 1 13 3 14
 SMILES IDX 4 15 14 16 15 17 16 18 17 19 18 20 19 21 23 22 20 23 22 24
 SMILES IDX 21 25 24 26 25 27 26 28 31 29 27 30 30 31 28 32 29 33
 H PARENT 8 7 11 8 29 34 29 35

>  <TORSDO>
F 11

$$$$
research/ai4chem/closed_loop/ipf_cycle1/docking_1vjy/cand_0006_dock.pdbqt
 OpenBabel03012623503D

 35 36  0  0  0  0  0  0  0  0999 V2000
   19.4010   70.1950    7.5790 C   0  0  0  0  0  3  0  0  0  0  0  0
   18.1930   69.6220    7.6500 C   0  0  0  0  0  3  0  0  0  0  0  0
   19.9600   70.5730    6.3860 N   0  0  0  0  0  0  0  0  0  0  0  0
   20.7830   70.3230    4.2610 N   0  0  0  0  0  0  0  0  0  0  0  0
   20.2160   69.6870    5.3500 C   0  0  0  0  0  0  0  0  0  0  0  0
   19.9600   68.4880    5.3930 O   0  0  0  0  0  0  0  0  0  0  0  0
   21.0450   71.2890    4.3650 H   0  0  0  0  0  0  0  0  0  0  0  0
   20.0640   71.5610    6.2030 H   0  0  0  0  0  0  0  0  0  0  0  0
   21.0310   69.7010    3.0650 C   0  0  0  0  0  3  0  0  0  0  0  0
   20.1620   69.6570    2.0470 C   0  0  0  0  0  3  0  0  0  0  0  0
   18.8080   70.3120    1.9530 C   0  0  0  0  0  2  0  0  0  0  0  0
   17.5890   69.3540    2.0150 C   0  0  0  0  0  0  0  0  0  0  0  0
   17.3340   68.8590    3.4490 C   0  0  0  0  0  1  0  0  0  0  0  0
   16.3190   70.0440    1.4880 C   0  0  0  0  0  1  0  0  0  0  0  0
   17.8900   68.1360    1.1200 C   0  0  0  0  0  1  0  0  0  0  0  0
   17.5460   69.2120    8.9420 C   0  0  0  0  0  2  0  0  0  0  0  0
   17.2460   67.7740    8.8870 N   0  0  0  0  0  0  0  0  0  0  0  0
   16.5190   67.2000    7.8420 C   0  0  0  0  0  3  0  0  0  0  0  0
   15.2800   67.4490    7.3950 C   0  0  0  0  0  3  0  0  0  0  0  0
   14.7150   66.7010    6.2720 C   0  0  0  0  0  0  0  0  0  0  0  0
   13.4120   66.2000    6.3520 C   0  0  0  0  0  3  0  0  0  0  0  0
   15.4690   66.4740    5.1130 C   0  0  0  0  0  3  0  0  0  0  0  0
   12.8660   65.4860    5.2840 C   0  0  0  0  0  3  0  0  0  0  0  0
   14.9230   65.7550    4.0470 C   0  0  0  0  0  3  0  0  0  0  0  0
   13.6220   65.2620    4.1330 C   0  0  0  0  0  3  0  0  0  0  0  0
   18.1570   66.9300    9.6990 C   0  0  0  0  0  2  0  0  0  0  0  0
   19.3800   67.6850   10.1830 C   0  0  0  0  0  0  0  0  0  0  0  0
   20.5800   67.6240    9.4620 C   0  0  0  0  0  3  0  0  0  0  0  0
   19.3370   68.4680   11.3450 C   0  0  0  0  0  3  0  0  0  0  0  0
   21.7160   68.3110    9.9060 C   0  0  0  0  0  3  0  0  0  0  0  0
   20.4730   69.1540   11.7890 C   0  0  0  0  0  3  0  0  0  0  0  0
   21.6720   69.0840   11.0720 C   0  0  0  0  0  0  0  0  0  0  0  0
   23.1400   69.9750   11.6530 P   0  0  0  0  0  0  0  0  0  0  0  0
   23.8840   69.9640   10.4470 H   0  0  0  0  0  0  0  0  0  0  0  0
   22.6380   71.2900   11.5150 H   0  0  0  0  0  0  0  0  0  0  0  0
  1  2  2  0  0  0  0
  2 16  1  0  0  0  0
  3  1  1  0  0  0  0
  4  7  1  0  0  0  0
  4  5  1  0  0  0  0
  5  6  2  0  0  0  0
  5  3  1  0  0  0  0
  8  3  1  0  0  0  0
  9  4  1  0  0  0  0
 10  9  2  0  0  0  0
 11 12  1  0  0  0  0
 11 10  1  0  0  0  0
 12 13  1  0  0  0  0
 14 12  1  0  0  0  0
 15 12  1  0  0  0  0
 17 16  1  0  0  0  0
 17 26  1  0  0  0  0
 18 17  1  0  0  0  0
 19 18  2  0  0  0  0
 20 21  1  0  0  0  0
 20 19  1  0  0  0  0
 22 20  2  0  0  0  0
 23 21  2  0  0  0  0
 24 25  2  0  0  0  0
 24 22  1  0  0  0  0
 25 23  1  0  0  0  0
 26 27  1  0  0  0  0
 27 29  1  0  0  0  0
 28 30  1  0  0  0  0
 28 27  2  0  0  0  0
 29 31  2  0  0  0  0
 30 32  2  0  0  0  0
 32 33  1  0  0  0  0
 32 31  1  0  0  0  0
 34 33  1  0  0  0  0
 35 33  1  0  0  0  0
M  END
>  <MODEL>
9

>  <REMARK>
 VINA RESULT:    -7.422      3.477      8.041
 INTER + INTRA:         -13.146
 INTER:                 -12.321
 INTRA:                  -0.825
 UNBOUND:                -1.168
 SMILES CC(C)(C)C/C=C\NC(=O)N/C=C/CN(/C=C/c1ccccc1)Cc1ccc(P)cc1
 SMILES IDX 12 1 13 2 11 3 8 4 9 5 10 6 7 9 6 10 5 11 2 12 1 13 3 14
 SMILES IDX 4 15 14 16 15 17 16 18 17 19 18 20 19 21 23 22 20 23 22 24
 SMILES IDX 21 25 24 26 25 27 26 28 31 29 27 30 30 31 28 32 29 33
 H PARENT 8 7 11 8 29 34 29 35

>  <TORSDO>
F 11

$$$$
research/ai4chem/closed_loop/ipf_cycle1/docking_1vjy/cand_0006_dock.pdbqt
 OpenBabel03012623503D

 35 36  0  0  0  0  0  0  0  0999 V2000
   17.9410   69.5340    1.5650 C   0  0  0  0  0  3  0  0  0  0  0  0
   17.2350   69.5140    2.7040 C   0  0  0  0  0  3  0  0  0  0  0  0
   19.2080   70.0510    1.5010 N   0  0  0  0  0  0  0  0  0  0  0  0
   21.4220   70.2990    2.0430 N   0  0  0  0  0  0  0  0  0  0  0  0
   20.2500   69.6140    2.3060 C   0  0  0  0  0  0  0  0  0  0  0  0
   20.1440   68.7220    3.1420 O   0  0  0  0  0  0  0  0  0  0  0  0
   21.3780   71.0810    1.4100 H   0  0  0  0  0  0  0  0  0  0  0  0
   19.4260   70.6810    0.7420 H   0  0  0  0  0  0  0  0  0  0  0  0
   22.6270   69.9880    2.6170 C   0  0  0  0  0  3  0  0  0  0  0  0
   23.0130   70.4080    3.8290 C   0  0  0  0  0  3  0  0  0  0  0  0
   22.2220   71.2160    4.8260 C   0  0  0  0  0  2  0  0  0  0  0  0
   21.5210   70.4050    5.9470 C   0  0  0  0  0  0  0  0  0  0  0  0
   21.7510   68.8930    5.7780 C   0  0  0  0  0  1  0  0  0  0  0  0
   22.0220   70.8370    7.3360 C   0  0  0  0  0  1  0  0  0  0  0  0
   20.0070   70.6830    5.8670 C   0  0  0  0  0  1  0  0  0  0  0  0
   15.8520   68.9410    2.8100 C   0  0  0  0  0  2  0  0  0  0  0  0
   15.8260   67.9600    3.9040 N   0  0  0  0  0  0  0  0  0  0  0  0
   14.7110   67.1620    4.1690 C   0  0  0  0  0  3  0  0  0  0  0  0
   14.6200   65.8970    4.6010 C   0  0  0  0  0  3  0  0  0  0  0  0
   13.3200   65.2550    4.8000 C   0  0  0  0  0  0  0  0  0  0  0  0
   12.5410   65.5890    5.9130 C   0  0  0  0  0  3  0  0  0  0  0  0
   12.8460   64.3040    3.8870 C   0  0  0  0  0  3  0  0  0  0  0  0
   11.2990   64.9810    6.1090 C   0  0  0  0  0  3  0  0  0  0  0  0
   11.6050   63.6940    4.0870 C   0  0  0  0  0  3  0  0  0  0  0  0
   10.8330   64.0330    5.1970 C   0  0  0  0  0  3  0  0  0  0  0  0
   17.1680   67.5200    4.3600 C   0  0  0  0  0  2  0  0  0  0  0  0
   17.4410   67.8770    5.8080 C   0  0  0  0  0  0  0  0  0  0  0  0
   18.6080   67.4270    6.4400 C   0  0  0  0  0  3  0  0  0  0  0  0
   16.5480   68.6710    6.5410 C   0  0  0  0  0  3  0  0  0  0  0  0
   18.8640   67.7450    7.7790 C   0  0  0  0  0  3  0  0  0  0  0  0
   16.8030   68.9870    7.8800 C   0  0  0  0  0  3  0  0  0  0  0  0
   17.9640   68.5290    8.5100 C   0  0  0  0  0  0  0  0  0  0  0  0
   18.2890   68.9420   10.2460 P   0  0  0  0  0  0  0  0  0  0  0  0
   18.3680   67.6260   10.7650 H   0  0  0  0  0  0  0  0  0  0  0  0
   19.6840   69.1530   10.1390 H   0  0  0  0  0  0  0  0  0  0  0  0
  1  2  2  0  0  0  0
  2 16  1  0  0  0  0
  3  1  1  0  0  0  0
  3  5  1  0  0  0  0
  4  5  1  0  0  0  0
  4  9  1  0  0  0  0
  5  6  2  0  0  0  0
  7  4  1  0  0  0  0
  8  3  1  0  0  0  0
  9 10  2  0  0  0  0
 10 11  1  0  0  0  0
 11 12  1  0  0  0  0
 12 14  1  0  0  0  0
 13 12  1  0  0  0  0
 15 12  1  0  0  0  0
 16 17  1  0  0  0  0
 17 18  1  0  0  0  0
 17 26  1  0  0  0  0
 18 19  2  0  0  0  0
 19 20  1  0  0  0  0
 20 21  1  0  0  0  0
 21 23  2  0  0  0  0
 22 24  1  0  0  0  0
 22 20  2  0  0  0  0
 24 25  2  0  0  0  0
 25 23  1  0  0  0  0
 26 27  1  0  0  0  0
 27 28  2  0  0  0  0
 27 29  1  0  0  0  0
 28 30  1  0  0  0  0
 29 31  2  0  0  0  0
 30 32  2  0  0  0  0
 31 32  1  0  0  0  0
 32 33  1  0  0  0  0
 33 34  1  0  0  0  0
 35 33  1  0  0  0  0
M  END
>  <MODEL>
10

>  <REMARK>
 VINA RESULT:    -7.369      3.381      7.152
 INTER + INTRA:         -13.060
 INTER:                 -11.613
 INTRA:                  -1.447
 UNBOUND:                -1.168
 SMILES CC(C)(C)C/C=C\NC(=O)N/C=C/CN(/C=C/c1ccccc1)Cc1ccc(P)cc1
 SMILES IDX 12 1 13 2 11 3 8 4 9 5 10 6 7 9 6 10 5 11 2 12 1 13 3 14
 SMILES IDX 4 15 14 16 15 17 16 18 17 19 18 20 19 21 23 22 20 23 22 24
 SMILES IDX 21 25 24 26 25 27 26 28 31 29 27 30 30 31 28 32 29 33
 H PARENT 8 7 11 8 29 34 29 35

>  <TORSDO>
F 11

$$$$
research/ai4chem/closed_loop/ipf_cycle1/docking_1vjy/cand_0006_dock.pdbqt
 OpenBabel03012623503D

 35 36  0  0  0  0  0  0  0  0999 V2000
   17.8100   66.9280    8.5890 C   0  0  0  0  0  3  0  0  0  0  0  0
   17.7560   67.6480    7.4610 C   0  0  0  0  0  3  0  0  0  0  0  0
   18.9160   66.9210    9.3980 N   0  0  0  0  0  0  0  0  0  0  0  0
   20.3800   67.6860   10.9880 N   0  0  0  0  0  0  0  0  0  0  0  0
   19.2090   67.9360   10.2960 C   0  0  0  0  0  0  0  0  0  0  0  0
   18.5070   68.9290   10.4630 O   0  0  0  0  0  0  0  0  0  0  0  0
   20.9330   66.8940   10.7040 H   0  0  0  0  0  0  0  0  0  0  0  0
   19.4690   66.0760    9.4390 H   0  0  0  0  0  0  0  0  0  0  0  0
   20.8380   68.4730   12.0130 C   0  0  0  0  0  3  0  0  0  0  0  0
   21.9290   69.2450   11.9370 C   0  0  0  0  0  3  0  0  0  0  0  0
   22.8200   69.4790   10.7440 C   0  0  0  0  0  2  0  0  0  0  0  0
   22.5610   70.7900    9.9550 C   0  0  0  0  0  0  0  0  0  0  0  0
   23.1740   72.0080   10.6690 C   0  0  0  0  0  1  0  0  0  0  0  0
   23.1380   70.7000    8.5310 C   0  0  0  0  0  1  0  0  0  0  0  0
   21.0370   70.9960    9.8520 C   0  0  0  0  0  1  0  0  0  0  0  0
   16.5540   67.6900    6.5620 C   0  0  0  0  0  2  0  0  0  0  0  0
   16.9420   68.2870    5.2760 N   0  0  0  0  0  0  0  0  0  0  0  0
   18.2200   68.8000    5.0440 C   0  0  0  0  0  3  0  0  0  0  0  0
   18.9970   68.7560    3.9530 C   0  0  0  0  0  3  0  0  0  0  0  0
   20.3280   69.3650    3.9460 C   0  0  0  0  0  0  0  0  0  0  0  0
   20.7790   70.0670    5.0680 C   0  0  0  0  0  3  0  0  0  0  0  0
   21.1570   69.2560    2.8220 C   0  0  0  0  0  3  0  0  0  0  0  0
   22.0480   70.6500    5.0680 C   0  0  0  0  0  3  0  0  0  0  0  0
   22.4240   69.8440    2.8220 C   0  0  0  0  0  3  0  0  0  0  0  0
   22.8690   70.5400    3.9450 C   0  0  0  0  0  3  0  0  0  0  0  0
   16.1000   67.8640    4.1300 C   0  0  0  0  0  2  0  0  0  0  0  0
   14.9950   66.9080    4.5350 C   0  0  0  0  0  0  0  0  0  0  0  0
   14.8660   65.6650    3.9010 C   0  0  0  0  0  3  0  0  0  0  0  0
   14.0920   67.2330    5.5570 C   0  0  0  0  0  3  0  0  0  0  0  0
   13.8440   64.7800    4.2630 C   0  0  0  0  0  3  0  0  0  0  0  0
   13.0700   66.3480    5.9180 C   0  0  0  0  0  3  0  0  0  0  0  0
   12.9380   65.1130    5.2760 C   0  0  0  0  0  0  0  0  0  0  0  0
   11.6110   63.9720    5.7490 P   0  0  0  0  0  0  0  0  0  0  0  0
   10.7050   64.2550    4.6970 H   0  0  0  0  0  0  0  0  0  0  0  0
   12.1520   62.7960    5.1770 H   0  0  0  0  0  0  0  0  0  0  0  0
  1  3  1  0  0  0  0
  2  1  2  0  0  0  0
  3  8  1  0  0  0  0
  3  5  1  0  0  0  0
  4  9  1  0  0  0  0
  5  6  2  0  0  0  0
  5  4  1  0  0  0  0
  7  4  1  0  0  0  0
 10  9  2  0  0  0  0
 11 10  1  0  0  0  0
 12 13  1  0  0  0  0
 12 11  1  0  0  0  0
 14 12  1  0  0  0  0
 15 12  1  0  0  0  0
 16  2  1  0  0  0  0
 17 16  1  0  0  0  0
 18 17  1  0  0  0  0
 19 18  2  0  0  0  0
 20 19  1  0  0  0  0
 20 21  1  0  0  0  0
 22 20  2  0  0  0  0
 23 21  2  0  0  0  0
 24 22  1  0  0  0  0
 24 25  2  0  0  0  0
 25 23  1  0  0  0  0
 26 27  1  0  0  0  0
 26 17  1  0  0  0  0
 27 29  1  0  0  0  0
 28 30  1  0  0  0  0
 28 27  2  0  0  0  0
 29 31  2  0  0  0  0
 30 32  2  0  0  0  0
 32 33  1  0  0  0  0
 32 31  1  0  0  0  0
 34 33  1  0  0  0  0
 35 33  1  0  0  0  0
M  END
>  <MODEL>
11

>  <REMARK>
 VINA RESULT:    -7.283      1.470      2.076
 INTER + INTRA:         -12.921
 INTER:                 -12.626
 INTRA:                  -0.295
 UNBOUND:                -1.168
 SMILES CC(C)(C)C/C=C\NC(=O)N/C=C/CN(/C=C/c1ccccc1)Cc1ccc(P)cc1
 SMILES IDX 12 1 13 2 11 3 8 4 9 5 10 6 7 9 6 10 5 11 2 12 1 13 3 14
 SMILES IDX 4 15 14 16 15 17 16 18 17 19 18 20 19 21 23 22 20 23 22 24
 SMILES IDX 21 25 24 26 25 27 26 28 31 29 27 30 30 31 28 32 29 33
 H PARENT 8 7 11 8 29 34 29 35

>  <TORSDO>
F 11

$$$$
research/ai4chem/closed_loop/ipf_cycle1/docking_1vjy/cand_0006_dock.pdbqt
 OpenBabel03012623503D

 35 36  0  0  0  0  0  0  0  0999 V2000
   16.9330   68.4460    2.8130 C   0  0  0  0  0  3  0  0  0  0  0  0
   16.9200   68.3230    4.1470 C   0  0  0  0  0  3  0  0  0  0  0  0
   18.1000   68.5530    2.1020 N   0  0  0  0  0  0  0  0  0  0  0  0
   20.0220   69.5320    1.3250 N   0  0  0  0  0  0  0  0  0  0  0  0
   18.9070   69.6810    2.1300 C   0  0  0  0  0  0  0  0  0  0  0  0
   18.6660   70.6820    2.7960 O   0  0  0  0  0  0  0  0  0  0  0  0
   20.0750   68.7130    0.7420 H   0  0  0  0  0  0  0  0  0  0  0  0
   18.4560   67.7250    1.6470 H   0  0  0  0  0  0  0  0  0  0  0  0
   21.0370   70.4510    1.2590 C   0  0  0  0  0  3  0  0  0  0  0  0
   22.1100   70.4430    2.0590 C   0  0  0  0  0  3  0  0  0  0  0  0
   22.4740   69.4310    3.1150 C   0  0  0  0  0  2  0  0  0  0  0  0
   21.8950   69.6930    4.5300 C   0  0  0  0  0  0  0  0  0  0  0  0
   21.1870   71.0570    4.6050 C   0  0  0  0  0  1  0  0  0  0  0  0
   20.9010   68.5890    4.9330 C   0  0  0  0  0  1  0  0  0  0  0  0
   23.0630   69.6890    5.5350 C   0  0  0  0  0  1  0  0  0  0  0  0
   15.6600   68.1870    4.9530 C   0  0  0  0  0  2  0  0  0  0  0  0
   16.0040   67.6880    6.2920 N   0  0  0  0  0  0  0  0  0  0  0  0
   17.2320   67.9580    6.9000 C   0  0  0  0  0  3  0  0  0  0  0  0
   17.6850   69.0620    7.5090 C   0  0  0  0  0  3  0  0  0  0  0  0
   19.0340   69.1180    8.0720 C   0  0  0  0  0  0  0  0  0  0  0  0
   19.7600   70.3120    8.0260 C   0  0  0  0  0  3  0  0  0  0  0  0
   19.6120   67.9830    8.6550 C   0  0  0  0  0  3  0  0  0  0  0  0
   21.0480   70.3730    8.5620 C   0  0  0  0  0  3  0  0  0  0  0  0
   20.9030   68.0440    9.1860 C   0  0  0  0  0  3  0  0  0  0  0  0
   21.6200   69.2390    9.1400 C   0  0  0  0  0  3  0  0  0  0  0  0
   14.8310   67.3340    7.1300 C   0  0  0  0  0  2  0  0  0  0  0  0
   13.8210   66.4780    6.3920 C   0  0  0  0  0  0  0  0  0  0  0  0
   14.2310   65.6410    5.3460 C   0  0  0  0  0  3  0  0  0  0  0  0
   12.4640   66.4890    6.7450 C   0  0  0  0  0  3  0  0  0  0  0  0
   13.3040   64.8530    4.6540 C   0  0  0  0  0  3  0  0  0  0  0  0
   11.5370   65.7020    6.0530 C   0  0  0  0  0  3  0  0  0  0  0  0
   11.9490   64.8760    5.0030 C   0  0  0  0  0  0  0  0  0  0  0  0
   10.7420   63.8590    4.1100 P   0  0  0  0  0  0  0  0  0  0  0  0
    9.6100   64.1100    4.9250 H   0  0  0  0  0  0  0  0  0  0  0  0
   10.4140   64.7900    3.0960 H   0  0  0  0  0  0  0  0  0  0  0  0
  1  2  2  0  0  0  0
  2 16  1  0  0  0  0
  3  5  1  0  0  0  0
  3  1  1  0  0  0  0
  4  5  1  0  0  0  0
  5  6  2  0  0  0  0
  7  4  1  0  0  0  0
  8  3  1  0  0  0  0
  9  4  1  0  0  0  0
  9 10  2  0  0  0  0
 10 11  1  0  0  0  0
 11 12  1  0  0  0  0
 12 13  1  0  0  0  0
 12 14  1  0  0  0  0
 12 15  1  0  0  0  0
 16 17  1  0  0  0  0
 17 18  1  0  0  0  0
 17 26  1  0  0  0  0
 18 19  2  0  0  0  0
 19 20  1  0  0  0  0
 20 22  1  0  0  0  0
 21 20  2  0  0  0  0
 21 23  1  0  0  0  0
 22 24  2  0  0  0  0
 23 25  2  0  0  0  0
 25 24  1  0  0  0  0
 27 29  1  0  0  0  0
 27 26  1  0  0  0  0
 28 27  2  0  0  0  0
 30 32  2  0  0  0  0
 30 28  1  0  0  0  0
 31 29  2  0  0  0  0
 32 31  1  0  0  0  0
 33 34  1  0  0  0  0
 33 32  1  0  0  0  0
 35 33  1  0  0  0  0
M  END
>  <MODEL>
12

>  <REMARK>
 VINA RESULT:    -7.140      2.193      5.493
 INTER + INTRA:         -12.690
 INTER:                 -11.061
 INTRA:                  -1.629
 UNBOUND:                -1.168
 SMILES CC(C)(C)C/C=C\NC(=O)N/C=C/CN(/C=C/c1ccccc1)Cc1ccc(P)cc1
 SMILES IDX 12 1 13 2 11 3 8 4 9 5 10 6 7 9 6 10 5 11 2 12 1 13 3 14
 SMILES IDX 4 15 14 16 15 17 16 18 17 19 18 20 19 21 23 22 20 23 22 24
 SMILES IDX 21 25 24 26 25 27 26 28 31 29 27 30 30 31 28 32 29 33
 H PARENT 8 7 11 8 29 34 29 35

>  <TORSDO>
F 11

$$$$
research/ai4chem/closed_loop/ipf_cycle1/docking_1vjy/cand_0006_dock.pdbqt
 OpenBabel03012623503D

 35 36  0  0  0  0  0  0  0  0999 V2000
   15.5690   67.9870    5.3760 C   0  0  0  0  0  3  0  0  0  0  0  0
   15.5360   67.6570    6.6740 C   0  0  0  0  0  3  0  0  0  0  0  0
   14.9360   67.2400    4.4170 N   0  0  0  0  0  0  0  0  0  0  0  0
   14.1550   65.3500    3.3810 N   0  0  0  0  0  0  0  0  0  0  0  0
   14.8400   65.8580    4.4700 C   0  0  0  0  0  0  0  0  0  0  0  0
   15.2980   65.1720    5.3780 O   0  0  0  0  0  0  0  0  0  0  0  0
   13.9090   65.9880    2.6410 H   0  0  0  0  0  0  0  0  0  0  0  0
   14.4010   67.7270    3.7130 H   0  0  0  0  0  0  0  0  0  0  0  0
   13.8220   64.0280    3.2440 C   0  0  0  0  0  3  0  0  0  0  0  0
   12.6000   63.5330    3.4760 C   0  0  0  0  0  3  0  0  0  0  0  0
   11.3490   64.2870    3.8490 C   0  0  0  0  0  2  0  0  0  0  0  0
   11.0290   64.3560    5.3660 C   0  0  0  0  0  0  0  0  0  0  0  0
    9.5540   64.0190    5.6470 C   0  0  0  0  0  1  0  0  0  0  0  0
   11.9250   63.3930    6.1630 C   0  0  0  0  0  1  0  0  0  0  0  0
   11.3050   65.7940    5.8490 C   0  0  0  0  0  1  0  0  0  0  0  0
   16.2040   68.4630    7.7500 C   0  0  0  0  0  2  0  0  0  0  0  0
   17.6020   68.0250    7.8740 N   0  0  0  0  0  0  0  0  0  0  0  0
   18.6290   68.5710    7.1010 C   0  0  0  0  0  3  0  0  0  0  0  0
   19.2320   68.1130    5.9950 C   0  0  0  0  0  3  0  0  0  0  0  0
   20.3100   68.8660    5.3530 C   0  0  0  0  0  0  0  0  0  0  0  0
   21.1990   69.6130    6.1320 C   0  0  0  0  0  3  0  0  0  0  0  0
   20.4600   68.8510    3.9600 C   0  0  0  0  0  3  0  0  0  0  0  0
   22.2310   70.3330    5.5270 C   0  0  0  0  0  3  0  0  0  0  0  0
   21.4900   69.5760    3.3550 C   0  0  0  0  0  3  0  0  0  0  0  0
   22.3750   70.3160    4.1390 C   0  0  0  0  0  3  0  0  0  0  0  0
   17.9240   67.3720    9.1660 C   0  0  0  0  0  2  0  0  0  0  0  0
   19.1690   67.9420    9.8180 C   0  0  0  0  0  0  0  0  0  0  0  0
   19.0590   68.8590   10.8720 C   0  0  0  0  0  3  0  0  0  0  0  0
   20.4500   67.5590    9.3960 C   0  0  0  0  0  3  0  0  0  0  0  0
   20.2030   69.3960   11.4740 C   0  0  0  0  0  3  0  0  0  0  0  0
   21.5930   68.0980    9.9970 C   0  0  0  0  0  3  0  0  0  0  0  0
   21.4800   69.0190   11.0420 C   0  0  0  0  0  0  0  0  0  0  0  0
   22.9650   69.7140   11.8160 P   0  0  0  0  0  0  0  0  0  0  0  0
   23.5020   70.3770   10.6840 H   0  0  0  0  0  0  0  0  0  0  0  0
   22.3670   70.8570   12.3970 H   0  0  0  0  0  0  0  0  0  0  0  0
  1  2  2  0  0  0  0
  2 16  1  0  0  0  0
  3  5  1  0  0  0  0
  3  1  1  0  0  0  0
  4  5  1  0  0  0  0
  5  6  2  0  0  0  0
  7  4  1  0  0  0  0
  8  3  1  0  0  0  0
  9  4  1  0  0  0  0
  9 10  2  0  0  0  0
 10 11  1  0  0  0  0
 11 12  1  0  0  0  0
 12 13  1  0  0  0  0
 12 15  1  0  0  0  0
 12 14  1  0  0  0  0
 16 17  1  0  0  0  0
 17 26  1  0  0  0  0
 18 17  1  0  0  0  0
 19 18  2  0  0  0  0
 20 19  1  0  0  0  0
 20 21  1  0  0  0  0
 22 20  2  0  0  0  0
 23 21  2  0  0  0  0
 24 22  1  0  0  0  0
 24 25  2  0  0  0  0
 25 23  1  0  0  0  0
 26 27  1  0  0  0  0
 27 28  1  0  0  0  0
 28 30  2  0  0  0  0
 29 27  2  0  0  0  0
 29 31  1  0  0  0  0
 31 32  2  0  0  0  0
 32 30  1  0  0  0  0
 32 33  1  0  0  0  0
 33 35  1  0  0  0  0
 34 33  1  0  0  0  0
M  END
>  <MODEL>
13

>  <REMARK>
 VINA RESULT:    -7.106      3.424      8.663
 INTER + INTRA:         -12.635
 INTER:                 -11.874
 INTRA:                  -0.761
 UNBOUND:                -1.168
 SMILES CC(C)(C)C/C=C\NC(=O)N/C=C/CN(/C=C/c1ccccc1)Cc1ccc(P)cc1
 SMILES IDX 12 1 13 2 11 3 8 4 9 5 10 6 7 9 6 10 5 11 2 12 1 13 3 14
 SMILES IDX 4 15 14 16 15 17 16 18 17 19 18 20 19 21 23 22 20 23 22 24
 SMILES IDX 21 25 24 26 25 27 26 28 31 29 27 30 30 31 28 32 29 33
 H PARENT 8 7 11 8 29 34 29 35

>  <TORSDO>
F 11

$$$$
research/ai4chem/closed_loop/ipf_cycle1/docking_1vjy/cand_0006_dock.pdbqt
 OpenBabel03012623503D

 35 36  0  0  0  0  0  0  0  0999 V2000
   17.2750   68.7110    3.6640 C   0  0  0  0  0  3  0  0  0  0  0  0
   16.7300   68.6830    4.8870 C   0  0  0  0  0  3  0  0  0  0  0  0
   18.4240   69.4070    3.3920 N   0  0  0  0  0  0  0  0  0  0  0  0
   20.6530   69.9340    3.4950 N   0  0  0  0  0  0  0  0  0  0  0  0
   19.6600   69.0730    3.9250 C   0  0  0  0  0  0  0  0  0  0  0  0
   19.8490   68.1230    4.6790 O   0  0  0  0  0  0  0  0  0  0  0  0
   20.3760   70.7400    2.9600 H   0  0  0  0  0  0  0  0  0  0  0  0
   18.3940   70.1090    2.6670 H   0  0  0  0  0  0  0  0  0  0  0  0
   21.9820   69.7620    3.7820 C   0  0  0  0  0  3  0  0  0  0  0  0
   22.6000   70.3110    4.8350 C   0  0  0  0  0  3  0  0  0  0  0  0
   21.9950   71.1410    5.9380 C   0  0  0  0  0  2  0  0  0  0  0  0
   21.5840   70.3650    7.2180 C   0  0  0  0  0  0  0  0  0  0  0  0
   22.0670   68.9050    7.1710 C   0  0  0  0  0  1  0  0  0  0  0  0
   22.1520   71.0420    8.4780 C   0  0  0  0  0  1  0  0  0  0  0  0
   20.0460   70.3720    7.3110 C   0  0  0  0  0  1  0  0  0  0  0  0
   15.4820   67.9180    5.2200 C   0  0  0  0  0  2  0  0  0  0  0  0
   15.5530   67.4800    6.6220 N   0  0  0  0  0  0  0  0  0  0  0  0
   16.6650   67.7270    7.4280 C   0  0  0  0  0  3  0  0  0  0  0  0
   17.0470   67.1760    8.5890 C   0  0  0  0  0  3  0  0  0  0  0  0
   18.2680   67.6100    9.2690 C   0  0  0  0  0  0  0  0  0  0  0  0
   18.2160   68.6580   10.1930 C   0  0  0  0  0  3  0  0  0  0  0  0
   19.4940   66.9880    9.0010 C   0  0  0  0  0  3  0  0  0  0  0  0
   19.3760   69.0770   10.8470 C   0  0  0  0  0  3  0  0  0  0  0  0
   20.6550   67.4120    9.6520 C   0  0  0  0  0  3  0  0  0  0  0  0
   20.5960   68.4550   10.5740 C   0  0  0  0  0  3  0  0  0  0  0  0
   14.2310   67.2300    7.2490 C   0  0  0  0  0  2  0  0  0  0  0  0
   13.3390   66.3440    6.4020 C   0  0  0  0  0  0  0  0  0  0  0  0
   13.8710   65.6310    5.3200 C   0  0  0  0  0  3  0  0  0  0  0  0
   11.9730   66.2060    6.6870 C   0  0  0  0  0  3  0  0  0  0  0  0
   13.0530   64.8170    4.5280 C   0  0  0  0  0  3  0  0  0  0  0  0
   11.1550   65.3930    5.8930 C   0  0  0  0  0  3  0  0  0  0  0  0
   11.6880   64.6900    4.8090 C   0  0  0  0  0  0  0  0  0  0  0  0
   10.6220   63.6390    3.7860 P   0  0  0  0  0  0  0  0  0  0  0  0
   11.1300   63.9990    2.5130 H   0  0  0  0  0  0  0  0  0  0  0  0
   11.3550   62.4350    3.9120 H   0  0  0  0  0  0  0  0  0  0  0  0
  1  2  2  0  0  0  0
  2 16  1  0  0  0  0
  3  1  1  0  0  0  0
  3  5  1  0  0  0  0
  4  9  1  0  0  0  0
  4  5  1  0  0  0  0
  5  6  2  0  0  0  0
  7  4  1  0  0  0  0
  8  3  1  0  0  0  0
  9 10  2  0  0  0  0
 10 11  1  0  0  0  0
 11 12  1  0  0  0  0
 12 15  1  0  0  0  0
 12 14  1  0  0  0  0
 13 12  1  0  0  0  0
 16 17  1  0  0  0  0
 17 26  1  0  0  0  0
 17 18  1  0  0  0  0
 18 19  2  0  0  0  0
 19 20  1  0  0  0  0
 20 21  1  0  0  0  0
 21 23  2  0  0  0  0
 22 20  2  0  0  0  0
 22 24  1  0  0  0  0
 24 25  2  0  0  0  0
 25 23  1  0  0  0  0
 27 29  1  0  0  0  0
 27 26  1  0  0  0  0
 28 27  2  0  0  0  0
 30 32  2  0  0  0  0
 30 28  1  0  0  0  0
 31 29  2  0  0  0  0
 32 31  1  0  0  0  0
 33 35  1  0  0  0  0
 33 32  1  0  0  0  0
 34 33  1  0  0  0  0
M  END
>  <MODEL>
14

>  <REMARK>
 VINA RESULT:    -7.093      1.995      4.954
 INTER + INTRA:         -12.614
 INTER:                 -11.169
 INTRA:                  -1.445
 UNBOUND:                -1.168
 SMILES CC(C)(C)C/C=C\NC(=O)N/C=C/CN(/C=C/c1ccccc1)Cc1ccc(P)cc1
 SMILES IDX 12 1 13 2 11 3 8 4 9 5 10 6 7 9 6 10 5 11 2 12 1 13 3 14
 SMILES IDX 4 15 14 16 15 17 16 18 17 19 18 20 19 21 23 22 20 23 22 24
 SMILES IDX 21 25 24 26 25 27 26 28 31 29 27 30 30 31 28 32 29 33
 H PARENT 8 7 11 8 29 34 29 35

>  <TORSDO>
F 11

$$$$
research/ai4chem/closed_loop/ipf_cycle1/docking_1vjy/cand_0006_dock.pdbqt
 OpenBabel03012623503D

 35 36  0  0  0  0  0  0  0  0999 V2000
   17.4320   69.6510    7.9400 C   0  0  0  0  0  3  0  0  0  0  0  0
   16.2010   70.0580    7.6000 C   0  0  0  0  0  3  0  0  0  0  0  0
   18.3990   70.5250    8.3610 N   0  0  0  0  0  0  0  0  0  0  0  0
   20.5160   71.2870    8.8000 N   0  0  0  0  0  0  0  0  0  0  0  0
   19.7560   70.2400    8.3150 C   0  0  0  0  0  0  0  0  0  0  0  0
   20.2220   69.1890    7.8850 O   0  0  0  0  0  0  0  0  0  0  0  0
   20.0330   72.0630    9.2220 H   0  0  0  0  0  0  0  0  0  0  0  0
   18.1200   71.4690    8.5880 H   0  0  0  0  0  0  0  0  0  0  0  0
   21.8860   71.3110    8.7630 C   0  0  0  0  0  3  0  0  0  0  0  0
   22.6730   70.8190    9.7290 C   0  0  0  0  0  3  0  0  0  0  0  0
   22.2590   70.0930   10.9830 C   0  0  0  0  0  2  0  0  0  0  0  0
   22.2360   68.5440   10.8890 C   0  0  0  0  0  0  0  0  0  0  0  0
   20.8110   67.9900   11.0570 C   0  0  0  0  0  1  0  0  0  0  0  0
   22.8060   68.0640    9.5430 C   0  0  0  0  0  1  0  0  0  0  0  0
   23.1190   67.9820   12.0210 C   0  0  0  0  0  1  0  0  0  0  0  0
   15.1150   69.1240    7.1510 C   0  0  0  0  0  2  0  0  0  0  0  0
   15.6970   68.1120    6.2570 N   0  0  0  0  0  0  0  0  0  0  0  0
   16.7420   68.4020    5.3770 C   0  0  0  0  0  3  0  0  0  0  0  0
   16.7250   68.8080    4.1000 C   0  0  0  0  0  3  0  0  0  0  0  0
   17.9670   69.0430    3.3630 C   0  0  0  0  0  0  0  0  0  0  0  0
   17.9210   69.3620    2.0020 C   0  0  0  0  0  3  0  0  0  0  0  0
   19.2080   68.9470    4.0060 C   0  0  0  0  0  3  0  0  0  0  0  0
   19.1020   69.5880    1.2930 C   0  0  0  0  0  3  0  0  0  0  0  0
   20.3890   69.1680    3.2940 C   0  0  0  0  0  3  0  0  0  0  0  0
   20.3360   69.4890    1.9380 C   0  0  0  0  0  3  0  0  0  0  0  0
   15.4710   66.7120    6.6940 C   0  0  0  0  0  2  0  0  0  0  0  0
   14.2830   66.0680    6.0050 C   0  0  0  0  0  0  0  0  0  0  0  0
   14.4300   65.4830    4.7400 C   0  0  0  0  0  3  0  0  0  0  0  0
   13.0230   66.0290    6.6180 C   0  0  0  0  0  3  0  0  0  0  0  0
   13.3370   64.8940    4.0940 C   0  0  0  0  0  3  0  0  0  0  0  0
   11.9300   65.4400    5.9710 C   0  0  0  0  0  3  0  0  0  0  0  0
   12.0780   64.8660    4.7050 C   0  0  0  0  0  0  0  0  0  0  0  0
   10.6580   64.1050    3.8730 P   0  0  0  0  0  0  0  0  0  0  0  0
   11.2490   62.8610    3.5410 H   0  0  0  0  0  0  0  0  0  0  0  0
    9.9750   63.6520    5.0260 H   0  0  0  0  0  0  0  0  0  0  0  0
  1  3  1  0  0  0  0
  2  1  2  0  0  0  0
  3  8  1  0  0  0  0
  4  7  1  0  0  0  0
  5  3  1  0  0  0  0
  5  4  1  0  0  0  0
  6  5  2  0  0  0  0
  9  4  1  0  0  0  0
  9 10  2  0  0  0  0
 10 11  1  0  0  0  0
 12 11  1  0  0  0  0
 12 13  1  0  0  0  0
 12 15  1  0  0  0  0
 14 12  1  0  0  0  0
 16  2  1  0  0  0  0
 17 26  1  0  0  0  0
 17 16  1  0  0  0  0
 18 17  1  0  0  0  0
 19 18  2  0  0  0  0
 20 22  1  0  0  0  0
 20 19  1  0  0  0  0
 21 20  2  0  0  0  0
 23 25  2  0  0  0  0
 23 21  1  0  0  0  0
 24 22  2  0  0  0  0
 25 24  1  0  0  0  0
 27 29  1  0  0  0  0
 27 26  1  0  0  0  0
 28 27  2  0  0  0  0
 30 32  2  0  0  0  0
 30 28  1  0  0  0  0
 31 29  2  0  0  0  0
 32 31  1  0  0  0  0
 33 32  1  0  0  0  0
 33 35  1  0  0  0  0
 34 33  1  0  0  0  0
M  END
>  <MODEL>
15

>  <REMARK>
 VINA RESULT:    -6.906      1.293      2.003
 INTER + INTRA:         -12.312
 INTER:                 -11.519
 INTRA:                  -0.793
 UNBOUND:                -1.168
 SMILES CC(C)(C)C/C=C\NC(=O)N/C=C/CN(/C=C/c1ccccc1)Cc1ccc(P)cc1
 SMILES IDX 12 1 13 2 11 3 8 4 9 5 10 6 7 9 6 10 5 11 2 12 1 13 3 14
 SMILES IDX 4 15 14 16 15 17 16 18 17 19 18 20 19 21 23 22 20 23 22 24
 SMILES IDX 21 25 24 26 25 27 26 28 31 29 27 30 30 31 28 32 29 33
 H PARENT 8 7 11 8 29 34 29 35

>  <TORSDO>
F 11

$$$$
research/ai4chem/closed_loop/ipf_cycle1/docking_1vjy/cand_0006_dock.pdbqt
 OpenBabel03012623503D

 35 36  0  0  0  0  0  0  0  0999 V2000
   19.1110   69.0810    1.7130 C   0  0  0  0  0  3  0  0  0  0  0  0
   18.2580   68.6800    2.6640 C   0  0  0  0  0  3  0  0  0  0  0  0
   20.2480   69.7880    2.0030 N   0  0  0  0  0  0  0  0  0  0  0  0
   22.1300   70.3830    3.1700 N   0  0  0  0  0  0  0  0  0  0  0  0
   21.0460   69.5270    3.1070 C   0  0  0  0  0  0  0  0  0  0  0  0
   20.8220   68.6370    3.9210 O   0  0  0  0  0  0  0  0  0  0  0  0
   22.1680   71.1430    2.5110 H   0  0  0  0  0  0  0  0  0  0  0  0
   20.5930   70.4380    1.3110 H   0  0  0  0  0  0  0  0  0  0  0  0
   23.1340   70.2690    4.0970 C   0  0  0  0  0  3  0  0  0  0  0  0
   22.9930   70.5590    5.3960 C   0  0  0  0  0  3  0  0  0  0  0  0
   21.7430   70.9840    6.1220 C   0  0  0  0  0  2  0  0  0  0  0  0
   21.5110   70.3260    7.5090 C   0  0  0  0  0  0  0  0  0  0  0  0
   21.7480   68.8060    7.4580 C   0  0  0  0  0  1  0  0  0  0  0  0
   22.4340   70.9430    8.5730 C   0  0  0  0  0  1  0  0  0  0  0  0
   20.0480   70.5820    7.9230 C   0  0  0  0  0  1  0  0  0  0  0  0
   17.0130   67.8900    2.3800 C   0  0  0  0  0  2  0  0  0  0  0  0
   15.9970   68.2240    3.3890 N   0  0  0  0  0  0  0  0  0  0  0  0
   14.9820   67.3370    3.7520 C   0  0  0  0  0  3  0  0  0  0  0  0
   15.0390   66.1200    4.3110 C   0  0  0  0  0  3  0  0  0  0  0  0
   13.8220   65.3580    4.5950 C   0  0  0  0  0  0  0  0  0  0  0  0
   13.4050   64.3560    3.7130 C   0  0  0  0  0  3  0  0  0  0  0  0
   13.0650   65.6250    5.7420 C   0  0  0  0  0  3  0  0  0  0  0  0
   12.2450   63.6250    3.9780 C   0  0  0  0  0  3  0  0  0  0  0  0
   11.9020   64.8960    6.0040 C   0  0  0  0  0  3  0  0  0  0  0  0
   11.4930   63.8970    5.1220 C   0  0  0  0  0  3  0  0  0  0  0  0
   16.4000   69.3020    4.3260 C   0  0  0  0  0  2  0  0  0  0  0  0
   16.8720   68.7690    5.6650 C   0  0  0  0  0  0  0  0  0  0  0  0
   16.1240   69.0090    6.8250 C   0  0  0  0  0  3  0  0  0  0  0  0
   18.0500   68.0160    5.7720 C   0  0  0  0  0  3  0  0  0  0  0  0
   16.5560   68.5280    8.0670 C   0  0  0  0  0  3  0  0  0  0  0  0
   18.4820   67.5360    7.0140 C   0  0  0  0  0  3  0  0  0  0  0  0
   17.7380   67.7850    8.1710 C   0  0  0  0  0  0  0  0  0  0  0  0
   18.3050   67.1600    9.7760 P   0  0  0  0  0  0  0  0  0  0  0  0
   19.3410   66.3090    9.3170 H   0  0  0  0  0  0  0  0  0  0  0  0
   19.1390   68.2480   10.1260 H   0  0  0  0  0  0  0  0  0  0  0  0
  1  3  1  0  0  0  0
  1  2  2  0  0  0  0
  3  5  1  0  0  0  0
  4  9  1  0  0  0  0
  5  4  1  0  0  0  0
  5  6  2  0  0  0  0
  7  4  1  0  0  0  0
  8  3  1  0  0  0  0
  9 10  2  0  0  0  0
 10 11  1  0  0  0  0
 11 12  1  0  0  0  0
 12 15  1  0  0  0  0
 12 14  1  0  0  0  0
 13 12  1  0  0  0  0
 16  2  1  0  0  0  0
 16 17  1  0  0  0  0
 17 18  1  0  0  0  0
 17 26  1  0  0  0  0
 18 19  2  0  0  0  0
 19 20  1  0  0  0  0
 20 22  1  0  0  0  0
 21 23  1  0  0  0  0
 21 20  2  0  0  0  0
 22 24  2  0  0  0  0
 23 25  2  0  0  0  0
 25 24  1  0  0  0  0
 26 27  1  0  0  0  0
 27 29  2  0  0  0  0
 27 28  1  0  0  0  0
 28 30  2  0  0  0  0
 29 31  1  0  0  0  0
 30 32  1  0  0  0  0
 31 32  2  0  0  0  0
 32 33  1  0  0  0  0
 33 35  1  0  0  0  0
 34 33  1  0  0  0  0
M  END
>  <MODEL>
16

>  <REMARK>
 VINA RESULT:    -6.865      3.195      6.688
 INTER + INTRA:         -12.247
 INTER:                 -11.365
 INTRA:                  -0.882
 UNBOUND:                -1.168
 SMILES CC(C)(C)C/C=C\NC(=O)N/C=C/CN(/C=C/c1ccccc1)Cc1ccc(P)cc1
 SMILES IDX 12 1 13 2 11 3 8 4 9 5 10 6 7 9 6 10 5 11 2 12 1 13 3 14
 SMILES IDX 4 15 14 16 15 17 16 18 17 19 18 20 19 21 23 22 20 23 22 24
 SMILES IDX 21 25 24 26 25 27 26 28 31 29 27 30 30 31 28 32 29 33
 H PARENT 8 7 11 8 29 34 29 35

>  <TORSDO>
F 11

$$$$
research/ai4chem/closed_loop/ipf_cycle1/docking_1vjy/cand_0006_dock.pdbqt
 OpenBabel03012623503D

 35 36  0  0  0  0  0  0  0  0999 V2000
   19.8370   68.7900    4.0140 C   0  0  0  0  0  3  0  0  0  0  0  0
   18.7930   67.9710    4.2020 C   0  0  0  0  0  3  0  0  0  0  0  0
   20.9200   68.7950    4.8530 N   0  0  0  0  0  0  0  0  0  0  0  0
   22.4350   69.6470    6.3480 N   0  0  0  0  0  0  0  0  0  0  0  0
   21.3130   69.9070    5.5830 C   0  0  0  0  0  0  0  0  0  0  0  0
   20.7290   70.9860    5.5580 O   0  0  0  0  0  0  0  0  0  0  0  0
   22.8970   68.7620    6.2190 H   0  0  0  0  0  0  0  0  0  0  0  0
   21.3700   67.9130    5.0520 H   0  0  0  0  0  0  0  0  0  0  0  0
   22.9630   70.5380    7.2460 C   0  0  0  0  0  3  0  0  0  0  0  0
   22.7260   70.5080    8.5630 C   0  0  0  0  0  3  0  0  0  0  0  0
   21.9260   69.4930    9.3380 C   0  0  0  0  0  2  0  0  0  0  0  0
   22.1930   69.4470   10.8660 C   0  0  0  0  0  0  0  0  0  0  0  0
   22.7590   68.0830   11.2990 C   0  0  0  0  0  1  0  0  0  0  0  0
   23.1740   70.5550   11.2880 C   0  0  0  0  0  1  0  0  0  0  0  0
   20.8540   69.6770   11.5950 C   0  0  0  0  0  1  0  0  0  0  0  0
   17.5990   67.9300    3.2920 C   0  0  0  0  0  2  0  0  0  0  0  0
   16.3980   68.2680    4.0680 N   0  0  0  0  0  0  0  0  0  0  0  0
   15.3480   67.3670    4.2530 C   0  0  0  0  0  3  0  0  0  0  0  0
   15.3100   66.0310    4.1500 C   0  0  0  0  0  3  0  0  0  0  0  0
   14.0720   65.2870    4.3840 C   0  0  0  0  0  0  0  0  0  0  0  0
   13.2820   65.5810    5.5000 C   0  0  0  0  0  3  0  0  0  0  0  0
   13.6680   64.2770    3.5020 C   0  0  0  0  0  3  0  0  0  0  0  0
   12.0990   64.8760    5.7290 C   0  0  0  0  0  3  0  0  0  0  0  0
   12.4860   63.5690    3.7350 C   0  0  0  0  0  3  0  0  0  0  0  0
   11.7030   63.8690    4.8480 C   0  0  0  0  0  3  0  0  0  0  0  0
   16.5860   69.3840    5.0280 C   0  0  0  0  0  2  0  0  0  0  0  0
   17.0100   68.9080    6.4040 C   0  0  0  0  0  0  0  0  0  0  0  0
   17.9670   69.6220    7.1370 C   0  0  0  0  0  3  0  0  0  0  0  0
   16.4490   67.7590    6.9790 C   0  0  0  0  0  3  0  0  0  0  0  0
   18.3700   69.1850    8.4040 C   0  0  0  0  0  3  0  0  0  0  0  0
   16.8530   67.3210    8.2460 C   0  0  0  0  0  3  0  0  0  0  0  0
   17.8140   68.0320    8.9700 C   0  0  0  0  0  0  0  0  0  0  0  0
   18.3330   67.4590   10.6110 P   0  0  0  0  0  0  0  0  0  0  0  0
   17.3990   66.4060   10.7720 H   0  0  0  0  0  0  0  0  0  0  0  0
   19.4170   66.6470   10.2010 H   0  0  0  0  0  0  0  0  0  0  0  0
  1  2  2  0  0  0  0
  1  3  1  0  0  0  0
  3  8  1  0  0  0  0
  3  5  1  0  0  0  0
  4  9  1  0  0  0  0
  5  4  1  0  0  0  0
  6  5  2  0  0  0  0
  7  4  1  0  0  0  0
  9 10  2  0  0  0  0
 10 11  1  0  0  0  0
 11 12  1  0  0  0  0
 12 14  1  0  0  0  0
 12 13  1  0  0  0  0
 12 15  1  0  0  0  0
 16 17  1  0  0  0  0
 16  2  1  0  0  0  0
 17 18  1  0  0  0  0
 17 26  1  0  0  0  0
 19 18  2  0  0  0  0
 19 20  1  0  0  0  0
 20 21  1  0  0  0  0
 21 23  2  0  0  0  0
 22 24  1  0  0  0  0
 22 20  2  0  0  0  0
 24 25  2  0  0  0  0
 25 23  1  0  0  0  0
 26 27  1  0  0  0  0
 27 29  2  0  0  0  0
 27 28  1  0  0  0  0
 28 30  2  0  0  0  0
 29 31  1  0  0  0  0
 30 32  1  0  0  0  0
 31 32  2  0  0  0  0
 32 33  1  0  0  0  0
 33 34  1  0  0  0  0
 35 33  1  0  0  0  0
M  END
>  <MODEL>
17

>  <REMARK>
 VINA RESULT:    -6.804      2.931      6.171
 INTER + INTRA:         -12.149
 INTER:                 -11.597
 INTRA:                  -0.552
 UNBOUND:                -1.168
 SMILES CC(C)(C)C/C=C\NC(=O)N/C=C/CN(/C=C/c1ccccc1)Cc1ccc(P)cc1
 SMILES IDX 12 1 13 2 11 3 8 4 9 5 10 6 7 9 6 10 5 11 2 12 1 13 3 14
 SMILES IDX 4 15 14 16 15 17 16 18 17 19 18 20 19 21 23 22 20 23 22 24
 SMILES IDX 21 25 24 26 25 27 26 28 31 29 27 30 30 31 28 32 29 33
 H PARENT 8 7 11 8 29 34 29 35

>  <TORSDO>
F 11

$$$$
research/ai4chem/closed_loop/ipf_cycle1/docking_1vjy/cand_0006_dock.pdbqt
 OpenBabel03012623503D

 35 36  0  0  0  0  0  0  0  0999 V2000
   17.7450   67.5450    8.2850 C   0  0  0  0  0  3  0  0  0  0  0  0
   17.9950   68.8610    8.2730 C   0  0  0  0  0  3  0  0  0  0  0  0
   16.4690   67.0450    8.2760 N   0  0  0  0  0  0  0  0  0  0  0  0
   14.2270   66.9740    7.8020 N   0  0  0  0  0  0  0  0  0  0  0  0
   15.4030   67.6880    7.6640 C   0  0  0  0  0  0  0  0  0  0  0  0
   15.4970   68.7560    7.0660 O   0  0  0  0  0  0  0  0  0  0  0  0
   14.2370   66.1620    8.3970 H   0  0  0  0  0  0  0  0  0  0  0  0
   16.3260   66.1030    8.6110 H   0  0  0  0  0  0  0  0  0  0  0  0
   13.0490   67.3300    7.1970 C   0  0  0  0  0  3  0  0  0  0  0  0
   12.5270   66.6960    6.1400 C   0  0  0  0  0  3  0  0  0  0  0  0
   13.0440   65.4590    5.4500 C   0  0  0  0  0  2  0  0  0  0  0  0
   11.9630   64.4850    4.9100 C   0  0  0  0  0  0  0  0  0  0  0  0
   10.6970   65.2380    4.4670 C   0  0  0  0  0  1  0  0  0  0  0  0
   12.5020   63.6670    3.7240 C   0  0  0  0  0  1  0  0  0  0  0  0
   11.5850   63.5110    6.0440 C   0  0  0  0  0  1  0  0  0  0  0  0
   19.3800   69.4410    8.2660 C   0  0  0  0  0  2  0  0  0  0  0  0
   19.9080   69.3950    6.8950 N   0  0  0  0  0  0  0  0  0  0  0  0
   19.0840   69.4910    5.7720 C   0  0  0  0  0  3  0  0  0  0  0  0
   18.4260   68.5480    5.0830 C   0  0  0  0  0  3  0  0  0  0  0  0
   17.6180   68.8900    3.9120 C   0  0  0  0  0  0  0  0  0  0  0  0
   16.3640   68.2980    3.7330 C   0  0  0  0  0  3  0  0  0  0  0  0
   18.0900   69.8040    2.9610 C   0  0  0  0  0  3  0  0  0  0  0  0
   15.5870   68.6200    2.6190 C   0  0  0  0  0  3  0  0  0  0  0  0
   17.3130   70.1220    1.8440 C   0  0  0  0  0  3  0  0  0  0  0  0
   16.0620   69.5300    1.6740 C   0  0  0  0  0  3  0  0  0  0  0  0
   21.3460   69.7430    6.7840 C   0  0  0  0  0  2  0  0  0  0  0  0
   21.7920   69.9390    5.3480 C   0  0  0  0  0  0  0  0  0  0  0  0
   21.3550   69.0630    4.3450 C   0  0  0  0  0  3  0  0  0  0  0  0
   22.6340   71.0000    4.9870 C   0  0  0  0  0  3  0  0  0  0  0  0
   21.7680   69.2310    3.0180 C   0  0  0  0  0  3  0  0  0  0  0  0
   23.0480   71.1670    3.6610 C   0  0  0  0  0  3  0  0  0  0  0  0
   22.6170   70.2860    2.6650 C   0  0  0  0  0  0  0  0  0  0  0  0
   23.1580   70.5080    0.9480 P   0  0  0  0  0  0  0  0  0  0  0  0
   23.0270   71.9170    0.8660 H   0  0  0  0  0  0  0  0  0  0  0  0
   24.5540   70.4930    1.1800 H   0  0  0  0  0  0  0  0  0  0  0  0
  2  1  2  0  0  0  0
  3  1  1  0  0  0  0
  3  8  1  0  0  0  0
  4  7  1  0  0  0  0
  5  4  1  0  0  0  0
  5  3  1  0  0  0  0
  6  5  2  0  0  0  0
  9  4  1  0  0  0  0
 10  9  2  0  0  0  0
 11 10  1  0  0  0  0
 12 11  1  0  0  0  0
 12 15  1  0  0  0  0
 13 12  1  0  0  0  0
 14 12  1  0  0  0  0
 16  2  1  0  0  0  0
 17 16  1  0  0  0  0
 18 17  1  0  0  0  0
 19 18  2  0  0  0  0
 20 19  1  0  0  0  0
 21 20  1  0  0  0  0
 22 20  2  0  0  0  0
 23 21  2  0  0  0  0
 24 22  1  0  0  0  0
 25 24  2  0  0  0  0
 25 23  1  0  0  0  0
 26 17  1  0  0  0  0
 27 26  1  0  0  0  0
 28 27  2  0  0  0  0
 29 27  1  0  0  0  0
 30 28  1  0  0  0  0
 31 29  2  0  0  0  0
 32 30  2  0  0  0  0
 32 31  1  0  0  0  0
 33 35  1  0  0  0  0
 33 32  1  0  0  0  0
 34 33  1  0  0  0  0
M  END
>  <MODEL>
18

>  <REMARK>
 VINA RESULT:    -6.730      3.500      8.227
 INTER + INTRA:         -12.029
 INTER:                 -12.467
 INTRA:                   0.437
 UNBOUND:                -1.168
 SMILES CC(C)(C)C/C=C\NC(=O)N/C=C/CN(/C=C/c1ccccc1)Cc1ccc(P)cc1
 SMILES IDX 12 1 13 2 11 3 8 4 9 5 10 6 7 9 6 10 5 11 2 12 1 13 3 14
 SMILES IDX 4 15 14 16 15 17 16 18 17 19 18 20 19 21 23 22 20 23 22 24
 SMILES IDX 21 25 24 26 25 27 26 28 31 29 27 30 30 31 28 32 29 33
 H PARENT 8 7 11 8 29 34 29 35

>  <TORSDO>
F 11

$$$$
research/ai4chem/closed_loop/ipf_cycle1/docking_1vjy/cand_0006_dock.pdbqt
 OpenBabel03012623503D

 35 36  0  0  0  0  0  0  0  0999 V2000
   16.8860   70.5750    7.7560 C   0  0  0  0  0  3  0  0  0  0  0  0
   16.6290   69.2610    7.7190 C   0  0  0  0  0  3  0  0  0  0  0  0
   18.1590   71.0660    7.8800 N   0  0  0  0  0  0  0  0  0  0  0  0
   20.4480   71.0070    7.9990 N   0  0  0  0  0  0  0  0  0  0  0  0
   19.2910   70.2640    7.8520 C   0  0  0  0  0  0  0  0  0  0  0  0
   19.2660   69.0460    7.7040 O   0  0  0  0  0  0  0  0  0  0  0  0
   20.3540   71.9850    8.2150 H   0  0  0  0  0  0  0  0  0  0  0  0
   18.2860   72.0680    7.8530 H   0  0  0  0  0  0  0  0  0  0  0  0
   21.7070   70.4760    7.8950 C   0  0  0  0  0  3  0  0  0  0  0  0
   22.4980   70.2070    8.9410 C   0  0  0  0  0  3  0  0  0  0  0  0
   22.1760   70.3450   10.4070 C   0  0  0  0  0  2  0  0  0  0  0  0
   21.7540   69.0390   11.1310 C   0  0  0  0  0  0  0  0  0  0  0  0
   20.5190   69.2620   12.0220 C   0  0  0  0  0  1  0  0  0  0  0  0
   21.4470   67.9210   10.1190 C   0  0  0  0  0  1  0  0  0  0  0  0
   22.9260   68.5830   12.0220 C   0  0  0  0  0  1  0  0  0  0  0  0
   15.2480   68.6910    7.5670 C   0  0  0  0  0  2  0  0  0  0  0  0
   15.3510   67.3330    7.0150 N   0  0  0  0  0  0  0  0  0  0  0  0
   14.2420   66.6340    6.5340 C   0  0  0  0  0  3  0  0  0  0  0  0
   14.1490   65.6590    5.6190 C   0  0  0  0  0  3  0  0  0  0  0  0
   12.8560   65.0740    5.2630 C   0  0  0  0  0  0  0  0  0  0  0  0
   11.7370   65.3160    6.0660 C   0  0  0  0  0  3  0  0  0  0  0  0
   12.7250   64.2670    4.1260 C   0  0  0  0  0  3  0  0  0  0  0  0
   10.4990   64.7620    5.7330 C   0  0  0  0  0  3  0  0  0  0  0  0
   11.4870   63.7090    3.7960 C   0  0  0  0  0  3  0  0  0  0  0  0
   10.3750   63.9580    4.6000 C   0  0  0  0  0  3  0  0  0  0  0  0
   16.7100   66.9680    6.5440 C   0  0  0  0  0  2  0  0  0  0  0  0
   17.0910   67.6700    5.2540 C   0  0  0  0  0  0  0  0  0  0  0  0
   16.1040   68.0330    4.3280 C   0  0  0  0  0  3  0  0  0  0  0  0
   18.4270   67.9830    4.9650 C   0  0  0  0  0  3  0  0  0  0  0  0
   16.4480   68.6740    3.1320 C   0  0  0  0  0  3  0  0  0  0  0  0
   18.7700   68.6220    3.7680 C   0  0  0  0  0  3  0  0  0  0  0  0
   17.7830   68.9750    2.8420 C   0  0  0  0  0  0  0  0  0  0  0  0
   18.2350   69.8030    1.2930 P   0  0  0  0  0  0  0  0  0  0  0  0
   19.6340   69.8950    1.5040 H   0  0  0  0  0  0  0  0  0  0  0  0
   18.2760   68.6570    0.4640 H   0  0  0  0  0  0  0  0  0  0  0  0
  1  3  1  0  0  0  0
  2  1  2  0  0  0  0
  4  7  1  0  0  0  0
  5  3  1  0  0  0  0
  5  4  1  0  0  0  0
  6  5  2  0  0  0  0
  8  3  1  0  0  0  0
  9  4  1  0  0  0  0
  9 10  2  0  0  0  0
 10 11  1  0  0  0  0
 11 12  1  0  0  0  0
 12 13  1  0  0  0  0
 12 15  1  0  0  0  0
 14 12  1  0  0  0  0
 16  2  1  0  0  0  0
 17 16  1  0  0  0  0
 18 17  1  0  0  0  0
 19 18  2  0  0  0  0
 20 19  1  0  0  0  0
 20 21  1  0  0  0  0
 22 20  2  0  0  0  0
 23 21  2  0  0  0  0
 24 22  1  0  0  0  0
 24 25  2  0  0  0  0
 25 23  1  0  0  0  0
 26 17  1  0  0  0  0
 27 26  1  0  0  0  0
 28 27  2  0  0  0  0
 29 27  1  0  0  0  0
 30 28  1  0  0  0  0
 31 29  2  0  0  0  0
 32 30  2  0  0  0  0
 32 31  1  0  0  0  0
 33 34  1  0  0  0  0
 33 32  1  0  0  0  0
 35 33  1  0  0  0  0
M  END
>  <MODEL>
19

>  <REMARK>
 VINA RESULT:    -6.721      2.472      5.955
 INTER + INTRA:         -12.015
 INTER:                 -12.609
 INTRA:                   0.595
 UNBOUND:                -1.168
 SMILES CC(C)(C)C/C=C\NC(=O)N/C=C/CN(/C=C/c1ccccc1)Cc1ccc(P)cc1
 SMILES IDX 12 1 13 2 11 3 8 4 9 5 10 6 7 9 6 10 5 11 2 12 1 13 3 14
 SMILES IDX 4 15 14 16 15 17 16 18 17 19 18 20 19 21 23 22 20 23 22 24
 SMILES IDX 21 25 24 26 25 27 26 28 31 29 27 30 30 31 28 32 29 33
 H PARENT 8 7 11 8 29 34 29 35

>  <TORSDO>
F 11

$$$$
