research/ai4chem/closed_loop/ipf_cycle1/docking_1vjy/cand_0017_dock.pdbqt
 OpenBabel03012623503D

 21 21  0  0  0  0  0  0  0  0999 V2000
   14.7270   66.1490    4.8900 N   0  0  0  0  0  4  0  0  0  0  0  0
   15.2560   67.4040    4.6240 C   0  0  0  0  0  0  0  0  0  0  0  0
   14.8140   68.4400    5.1010 O   0  0  0  0  0  0  0  0  0  0  0  0
   16.3260   67.3060    3.7520 N   0  0  0  0  0  0  0  0  0  0  0  0
   15.3190   65.3670    4.6490 H   0  0  0  0  0  0  0  0  0  0  0  0
   16.4370   66.4260    3.2730 H   0  0  0  0  0  0  0  0  0  0  0  0
   13.6100   65.8610    5.6630 C   0  0  0  0  0  0  0  0  0  0  0  0
   12.9410   64.7140    5.4180 C   0  0  0  0  0  2  0  0  0  0  0  0
   11.7250   64.2300    6.0410 C   0  0  0  0  0  3  0  0  0  0  0  0
   10.4910   64.2500    5.5130 C   0  0  0  0  0  3  0  0  0  0  0  0
   10.0400   64.7570    4.1800 C   0  0  0  0  0  1  0  0  0  0  0  0
   13.1410   66.8490    6.6970 C   0  0  0  0  0  3  0  0  0  0  0  0
   13.5510   66.8870    7.8530 O   0  0  0  0  0  0  0  0  0  0  0  0
   17.1790   68.3450    3.3200 C   0  0  0  0  0  0  0  0  0  0  0  0
   16.8230   69.3010    2.3680 C   0  0  0  0  0  3  0  0  0  0  0  0
   18.4500   68.4160    3.9090 C   0  0  0  0  0  3  0  0  0  0  0  0
   17.7260   70.3010    1.9980 C   0  0  0  0  0  3  0  0  0  0  0  0
   19.3620   69.4220    3.5490 C   0  0  0  0  0  0  0  0  0  0  0  0
   18.9900   70.3600    2.5820 C   0  0  0  0  0  3  0  0  0  0  0  0
   20.7330   69.4720    4.1740 C   0  0  0  0  0  2  0  0  0  0  0  0
   21.8230   69.6710    3.1320 C   0  0  0  0  0  1  0  0  0  0  0  0
  1  7  2  0  0  0  0
  2  1  1  0  0  0  0
  2  3  2  0  0  0  0
  4  2  1  0  0  0  0
  5  1  1  0  0  0  0
  6  4  1  0  0  0  0
  7 12  1  0  0  0  0
  8  7  1  0  0  0  0
  8  9  1  0  0  0  0
 10  9  2  0  0  0  0
 11 10  1  0  0  0  0
 12 13  2  0  0  0  0
 14  4  1  0  0  0  0
 14 16  1  0  0  0  0
 15 14  2  0  0  0  0
 17 15  1  0  0  0  0
 17 19  2  0  0  0  0
 18 16  2  0  0  0  0
 18 20  1  0  0  0  0
 19 18  1  0  0  0  0
 21 20  1  0  0  0  0
M  END
>  <MODEL>
1

>  <REMARK>
 VINA RESULT:    -8.439      0.000      0.000
 INTER + INTRA:         -10.910
 INTER:                 -10.906
 INTRA:                  -0.004
 UNBOUND:                -0.004
 SMILES C/C=C\C=C(/C=O)NC(=O)Nc1cccc(CC)c1
 SMILES IDX 8 1 9 2 10 3 11 4 5 7 4 8 3 9 2 10 1 11 6 12 7 13 12 14
 SMILES IDX 13 15 19 16 14 17 16 18 15 19 17 20 18 21
 H PARENT 8 5 11 6

>  <TORSDO>
F 5

$$$$
research/ai4chem/closed_loop/ipf_cycle1/docking_1vjy/cand_0017_dock.pdbqt
 OpenBabel03012623503D

 21 21  0  0  0  0  0  0  0  0999 V2000
   14.4260   66.0380    5.1710 N   0  0  0  0  0  4  0  0  0  0  0  0
   15.1460   66.6360    4.1460 C   0  0  0  0  0  0  0  0  0  0  0  0
   14.9350   66.4260    2.9590 O   0  0  0  0  0  0  0  0  0  0  0  0
   16.1180   67.4760    4.6600 N   0  0  0  0  0  0  0  0  0  0  0  0
   14.5170   66.4730    6.0770 H   0  0  0  0  0  0  0  0  0  0  0  0
   16.3190   67.3820    5.6430 H   0  0  0  0  0  0  0  0  0  0  0  0
   13.4220   65.0880    5.0410 C   0  0  0  0  0  0  0  0  0  0  0  0
   12.3610   65.1610    5.8730 C   0  0  0  0  0  2  0  0  0  0  0  0
   11.2310   64.2590    5.9740 C   0  0  0  0  0  3  0  0  0  0  0  0
   10.1440   64.2470    5.1860 C   0  0  0  0  0  3  0  0  0  0  0  0
    9.8060   65.1250    4.0240 C   0  0  0  0  0  1  0  0  0  0  0  0
   13.5670   63.9780    4.0350 C   0  0  0  0  0  3  0  0  0  0  0  0
   12.9370   63.9090    2.9850 O   0  0  0  0  0  0  0  0  0  0  0  0
   16.9830   68.3290    3.9400 C   0  0  0  0  0  0  0  0  0  0  0  0
   16.5780   69.1290    2.8720 C   0  0  0  0  0  3  0  0  0  0  0  0
   18.3240   68.3750    4.3510 C   0  0  0  0  0  3  0  0  0  0  0  0
   17.4980   69.9510    2.2150 C   0  0  0  0  0  3  0  0  0  0  0  0
   19.2540   69.2020    3.7020 C   0  0  0  0  0  0  0  0  0  0  0  0
   18.8300   69.9850    2.6240 C   0  0  0  0  0  3  0  0  0  0  0  0
   20.6960   69.2230    4.1400 C   0  0  0  0  0  2  0  0  0  0  0  0
   21.6310   69.5780    2.9930 C   0  0  0  0  0  1  0  0  0  0  0  0
  1  5  1  0  0  0  0
  2  4  1  0  0  0  0
  2  1  1  0  0  0  0
  3  2  2  0  0  0  0
  4  6  1  0  0  0  0
  7  1  2  0  0  0  0
  7  8  1  0  0  0  0
  8  9  1  0  0  0  0
 10  9  2  0  0  0  0
 11 10  1  0  0  0  0
 12  7  1  0  0  0  0
 13 12  2  0  0  0  0
 14 16  1  0  0  0  0
 14  4  1  0  0  0  0
 15 14  2  0  0  0  0
 17 19  2  0  0  0  0
 17 15  1  0  0  0  0
 18 20  1  0  0  0  0
 18 16  2  0  0  0  0
 19 18  1  0  0  0  0
 21 20  1  0  0  0  0
M  END
>  <MODEL>
2

>  <REMARK>
 VINA RESULT:    -8.438      1.547      1.822
 INTER + INTRA:         -10.908
 INTER:                 -10.833
 INTRA:                  -0.075
 UNBOUND:                -0.004
 SMILES C/C=C\C=C(/C=O)NC(=O)Nc1cccc(CC)c1
 SMILES IDX 8 1 9 2 10 3 11 4 5 7 4 8 3 9 2 10 1 11 6 12 7 13 12 14
 SMILES IDX 13 15 19 16 14 17 16 18 15 19 17 20 18 21
 H PARENT 8 5 11 6

>  <TORSDO>
F 5

$$$$
research/ai4chem/closed_loop/ipf_cycle1/docking_1vjy/cand_0017_dock.pdbqt
 OpenBabel03012623503D

 21 21  0  0  0  0  0  0  0  0999 V2000
   17.1610   68.0360    3.6610 N   0  0  0  0  0  4  0  0  0  0  0  0
   15.8090   67.7490    3.7870 C   0  0  0  0  0  0  0  0  0  0  0  0
   14.9680   68.0750    2.9620 O   0  0  0  0  0  0  0  0  0  0  0  0
   15.5660   67.0640    4.9650 N   0  0  0  0  0  0  0  0  0  0  0  0
   17.7760   67.5070    4.2610 H   0  0  0  0  0  0  0  0  0  0  0  0
   16.3110   67.0590    5.6440 H   0  0  0  0  0  0  0  0  0  0  0  0
   17.7670   68.7680    2.6480 C   0  0  0  0  0  0  0  0  0  0  0  0
   19.0970   68.9870    2.7250 C   0  0  0  0  0  2  0  0  0  0  0  0
   19.9350   69.7650    1.8340 C   0  0  0  0  0  3  0  0  0  0  0  0
   21.2410   70.0330    1.9940 C   0  0  0  0  0  3  0  0  0  0  0  0
   22.1650   69.6180    3.0940 C   0  0  0  0  0  1  0  0  0  0  0  0
   16.9300   69.3450    1.5380 C   0  0  0  0  0  3  0  0  0  0  0  0
   16.5770   70.5190    1.4770 O   0  0  0  0  0  0  0  0  0  0  0  0
   14.3400   66.5170    5.4030 C   0  0  0  0  0  0  0  0  0  0  0  0
   13.6550   66.9510    6.5390 C   0  0  0  0  0  3  0  0  0  0  0  0
   13.7820   65.4920    4.6260 C   0  0  0  0  0  3  0  0  0  0  0  0
   12.4420   66.3590    6.9020 C   0  0  0  0  0  3  0  0  0  0  0  0
   12.5600   64.8960    4.9780 C   0  0  0  0  0  0  0  0  0  0  0  0
   11.8980   65.3350    6.1290 C   0  0  0  0  0  3  0  0  0  0  0  0
   11.9850   63.7790    4.1460 C   0  0  0  0  0  2  0  0  0  0  0  0
   10.4880   63.9440    3.9340 C   0  0  0  0  0  1  0  0  0  0  0  0
  1  2  1  0  0  0  0
  1  5  1  0  0  0  0
  2  4  1  0  0  0  0
  3  2  2  0  0  0  0
  4 14  1  0  0  0  0
  4  6  1  0  0  0  0
  7  8  1  0  0  0  0
  7  1  2  0  0  0  0
  9 10  2  0  0  0  0
  9  8  1  0  0  0  0
 10 11  1  0  0  0  0
 12  7  1  0  0  0  0
 13 12  2  0  0  0  0
 14 15  1  0  0  0  0
 15 17  2  0  0  0  0
 16 18  1  0  0  0  0
 16 14  2  0  0  0  0
 18 19  2  0  0  0  0
 19 17  1  0  0  0  0
 20 18  1  0  0  0  0
 21 20  1  0  0  0  0
M  END
>  <MODEL>
3

>  <REMARK>
 VINA RESULT:    -8.262      1.688      8.115
 INTER + INTRA:         -10.681
 INTER:                 -10.930
 INTRA:                   0.249
 UNBOUND:                -0.004
 SMILES C/C=C\C=C(/C=O)NC(=O)Nc1cccc(CC)c1
 SMILES IDX 8 1 9 2 10 3 11 4 5 7 4 8 3 9 2 10 1 11 6 12 7 13 12 14
 SMILES IDX 13 15 19 16 14 17 16 18 15 19 17 20 18 21
 H PARENT 8 5 11 6

>  <TORSDO>
F 5

$$$$
research/ai4chem/closed_loop/ipf_cycle1/docking_1vjy/cand_0017_dock.pdbqt
 OpenBabel03012623503D

 21 21  0  0  0  0  0  0  0  0999 V2000
   14.4850   66.2910    3.8500 N   0  0  0  0  0  4  0  0  0  0  0  0
   15.6250   66.7670    4.4820 C   0  0  0  0  0  0  0  0  0  0  0  0
   16.0430   66.3300    5.5450 O   0  0  0  0  0  0  0  0  0  0  0  0
   16.1960   67.7910    3.7470 N   0  0  0  0  0  0  0  0  0  0  0  0
   14.3860   66.5470    2.8790 H   0  0  0  0  0  0  0  0  0  0  0  0
   15.6290   68.1900    3.0160 H   0  0  0  0  0  0  0  0  0  0  0  0
   13.6150   65.3160    4.3220 C   0  0  0  0  0  0  0  0  0  0  0  0
   12.8500   65.6080    5.3960 C   0  0  0  0  0  2  0  0  0  0  0  0
   11.9240   64.7460    6.1020 C   0  0  0  0  0  3  0  0  0  0  0  0
   10.7090   64.3590    5.6810 C   0  0  0  0  0  3  0  0  0  0  0  0
    9.9970   64.6940    4.4100 C   0  0  0  0  0  1  0  0  0  0  0  0
   13.5940   63.9570    3.6770 C   0  0  0  0  0  3  0  0  0  0  0  0
   12.9200   63.6690    2.6930 O   0  0  0  0  0  0  0  0  0  0  0  0
   17.4110   68.4620    4.0090 C   0  0  0  0  0  0  0  0  0  0  0  0
   17.8690   68.7710    5.2910 C   0  0  0  0  0  3  0  0  0  0  0  0
   18.2000   68.8140    2.9050 C   0  0  0  0  0  3  0  0  0  0  0  0
   19.0860   69.4350    5.4650 C   0  0  0  0  0  3  0  0  0  0  0  0
   19.4280   69.4740    3.0700 C   0  0  0  0  0  0  0  0  0  0  0  0
   19.8610   69.7880    4.3620 C   0  0  0  0  0  3  0  0  0  0  0  0
   20.2540   69.8670    1.8720 C   0  0  0  0  0  2  0  0  0  0  0  0
   21.7440   69.7280    2.1410 C   0  0  0  0  0  1  0  0  0  0  0  0
  1  7  2  0  0  0  0
  1  2  1  0  0  0  0
  2  3  2  0  0  0  0
  4 14  1  0  0  0  0
  4  2  1  0  0  0  0
  5  1  1  0  0  0  0
  6  4  1  0  0  0  0
  7  8  1  0  0  0  0
  8  9  1  0  0  0  0
 10  9  2  0  0  0  0
 11 10  1  0  0  0  0
 12  7  1  0  0  0  0
 13 12  2  0  0  0  0
 14 15  1  0  0  0  0
 15 17  2  0  0  0  0
 16 18  1  0  0  0  0
 16 14  2  0  0  0  0
 18 19  2  0  0  0  0
 19 17  1  0  0  0  0
 20 21  1  0  0  0  0
 20 18  1  0  0  0  0
M  END
>  <MODEL>
4

>  <REMARK>
 VINA RESULT:    -8.224      1.775      2.340
 INTER + INTRA:         -10.632
 INTER:                 -10.481
 INTRA:                  -0.151
 UNBOUND:                -0.004
 SMILES C/C=C\C=C(/C=O)NC(=O)Nc1cccc(CC)c1
 SMILES IDX 8 1 9 2 10 3 11 4 5 7 4 8 3 9 2 10 1 11 6 12 7 13 12 14
 SMILES IDX 13 15 19 16 14 17 16 18 15 19 17 20 18 21
 H PARENT 8 5 11 6

>  <TORSDO>
F 5

$$$$
research/ai4chem/closed_loop/ipf_cycle1/docking_1vjy/cand_0017_dock.pdbqt
 OpenBabel03012623503D

 21 21  0  0  0  0  0  0  0  0999 V2000
   14.5300   66.6720    4.8230 N   0  0  0  0  0  4  0  0  0  0  0  0
   15.7390   67.1890    5.2650 C   0  0  0  0  0  0  0  0  0  0  0  0
   16.0900   67.1850    6.4370 O   0  0  0  0  0  0  0  0  0  0  0  0
   16.4650   67.7050    4.2050 N   0  0  0  0  0  0  0  0  0  0  0  0
   14.4650   66.5050    3.8300 H   0  0  0  0  0  0  0  0  0  0  0  0
   15.9640   67.8380    3.3410 H   0  0  0  0  0  0  0  0  0  0  0  0
   13.5160   66.1360    5.6060 C   0  0  0  0  0  0  0  0  0  0  0  0
   13.0190   64.9270    5.2680 C   0  0  0  0  0  2  0  0  0  0  0  0
   11.9290   64.1970    5.8840 C   0  0  0  0  0  3  0  0  0  0  0  0
   10.6510   64.1710    5.4750 C   0  0  0  0  0  3  0  0  0  0  0  0
   10.0140   64.8590    4.3110 C   0  0  0  0  0  1  0  0  0  0  0  0
   12.9580   66.9310    6.7560 C   0  0  0  0  0  3  0  0  0  0  0  0
   13.4030   66.8990    7.8980 O   0  0  0  0  0  0  0  0  0  0  0  0
   17.7760   68.2280    4.2360 C   0  0  0  0  0  0  0  0  0  0  0  0
   18.5830   68.2420    5.3740 C   0  0  0  0  0  3  0  0  0  0  0  0
   18.2880   68.7440    3.0360 C   0  0  0  0  0  3  0  0  0  0  0  0
   19.8730   68.7750    5.3190 C   0  0  0  0  0  3  0  0  0  0  0  0
   19.5850   69.2750    2.9690 C   0  0  0  0  0  0  0  0  0  0  0  0
   20.3720   69.2930    4.1250 C   0  0  0  0  0  3  0  0  0  0  0  0
   20.1130   69.8470    1.6780 C   0  0  0  0  0  2  0  0  0  0  0  0
   21.6320   69.7950    1.6150 C   0  0  0  0  0  1  0  0  0  0  0  0
  1  2  1  0  0  0  0
  1  7  2  0  0  0  0
  2  3  2  0  0  0  0
  4 14  1  0  0  0  0
  4  2  1  0  0  0  0
  5  1  1  0  0  0  0
  6  4  1  0  0  0  0
  7 12  1  0  0  0  0
  8  7  1  0  0  0  0
  8  9  1  0  0  0  0
 10  9  2  0  0  0  0
 11 10  1  0  0  0  0
 12 13  2  0  0  0  0
 14 15  1  0  0  0  0
 16 14  2  0  0  0  0
 17 15  2  0  0  0  0
 18 16  1  0  0  0  0
 18 19  2  0  0  0  0
 19 17  1  0  0  0  0
 20 18  1  0  0  0  0
 21 20  1  0  0  0  0
M  END
>  <MODEL>
5

>  <REMARK>
 VINA RESULT:    -8.085      1.023      1.701
 INTER + INTRA:         -10.452
 INTER:                 -10.592
 INTRA:                   0.141
 UNBOUND:                -0.004
 SMILES C/C=C\C=C(/C=O)NC(=O)Nc1cccc(CC)c1
 SMILES IDX 8 1 9 2 10 3 11 4 5 7 4 8 3 9 2 10 1 11 6 12 7 13 12 14
 SMILES IDX 13 15 19 16 14 17 16 18 15 19 17 20 18 21
 H PARENT 8 5 11 6

>  <TORSDO>
F 5

$$$$
research/ai4chem/closed_loop/ipf_cycle1/docking_1vjy/cand_0017_dock.pdbqt
 OpenBabel03012623503D

 21 21  0  0  0  0  0  0  0  0999 V2000
   16.4430   67.8150    6.9980 N   0  0  0  0  0  4  0  0  0  0  0  0
   15.7490   67.3690    5.8830 C   0  0  0  0  0  0  0  0  0  0  0  0
   15.7850   67.9260    4.7950 O   0  0  0  0  0  0  0  0  0  0  0  0
   15.0210   66.2310    6.1860 N   0  0  0  0  0  0  0  0  0  0  0  0
   16.5370   67.1470    7.7490 H   0  0  0  0  0  0  0  0  0  0  0  0
   14.9120   66.0150    7.1650 H   0  0  0  0  0  0  0  0  0  0  0  0
   17.2220   68.9610    7.0930 C   0  0  0  0  0  0  0  0  0  0  0  0
   18.4180   68.9740    6.4680 C   0  0  0  0  0  2  0  0  0  0  0  0
   19.4250   70.0170    6.4720 C   0  0  0  0  0  3  0  0  0  0  0  0
   20.2380   70.3490    5.4560 C   0  0  0  0  0  3  0  0  0  0  0  0
   20.3280   69.7620    4.0840 C   0  0  0  0  0  1  0  0  0  0  0  0
   16.7500   70.1190    7.9300 C   0  0  0  0  0  3  0  0  0  0  0  0
   15.6730   70.1550    8.5170 O   0  0  0  0  0  0  0  0  0  0  0  0
   14.2680   65.4320    5.2990 C   0  0  0  0  0  0  0  0  0  0  0  0
   14.8030   64.7910    4.1810 C   0  0  0  0  0  3  0  0  0  0  0  0
   12.9040   65.2690    5.5850 C   0  0  0  0  0  3  0  0  0  0  0  0
   13.9880   64.0120    3.3550 C   0  0  0  0  0  3  0  0  0  0  0  0
   12.0790   64.4830    4.7650 C   0  0  0  0  0  0  0  0  0  0  0  0
   12.6330   63.8620    3.6420 C   0  0  0  0  0  3  0  0  0  0  0  0
   10.6110   64.3360    5.0720 C   0  0  0  0  0  2  0  0  0  0  0  0
    9.7450   65.0910    4.0750 C   0  0  0  0  0  1  0  0  0  0  0  0
  1  7  2  0  0  0  0
  1  5  1  0  0  0  0
  2  4  1  0  0  0  0
  2  1  1  0  0  0  0
  3  2  2  0  0  0  0
  4  6  1  0  0  0  0
  7 12  1  0  0  0  0
  8  9  1  0  0  0  0
  8  7  1  0  0  0  0
 10  9  2  0  0  0  0
 11 10  1  0  0  0  0
 12 13  2  0  0  0  0
 14 16  1  0  0  0  0
 14  4  1  0  0  0  0
 15 14  2  0  0  0  0
 17 19  2  0  0  0  0
 17 15  1  0  0  0  0
 18 20  1  0  0  0  0
 18 16  2  0  0  0  0
 19 18  1  0  0  0  0
 21 20  1  0  0  0  0
M  END
>  <MODEL>
6

>  <REMARK>
 VINA RESULT:    -7.989      2.263      7.610
 INTER + INTRA:         -10.328
 INTER:                 -10.007
 INTRA:                  -0.321
 UNBOUND:                -0.004
 SMILES C/C=C\C=C(/C=O)NC(=O)Nc1cccc(CC)c1
 SMILES IDX 8 1 9 2 10 3 11 4 5 7 4 8 3 9 2 10 1 11 6 12 7 13 12 14
 SMILES IDX 13 15 19 16 14 17 16 18 15 19 17 20 18 21
 H PARENT 8 5 11 6

>  <TORSDO>
F 5

$$$$
research/ai4chem/closed_loop/ipf_cycle1/docking_1vjy/cand_0017_dock.pdbqt
 OpenBabel03012623503D

 21 21  0  0  0  0  0  0  0  0999 V2000
   16.2530   67.8840    7.1990 N   0  0  0  0  0  4  0  0  0  0  0  0
   15.5810   67.4560    6.0630 C   0  0  0  0  0  0  0  0  0  0  0  0
   15.5760   68.0720    5.0070 O   0  0  0  0  0  0  0  0  0  0  0  0
   14.9270   66.2610    6.3060 N   0  0  0  0  0  0  0  0  0  0  0  0
   16.3930   67.1840    7.9120 H   0  0  0  0  0  0  0  0  0  0  0  0
   14.8380   65.9860    7.2720 H   0  0  0  0  0  0  0  0  0  0  0  0
   16.9600   69.0700    7.3530 C   0  0  0  0  0  0  0  0  0  0  0  0
   18.2690   69.0800    7.0240 C   0  0  0  0  0  2  0  0  0  0  0  0
   19.2220   70.1650    7.1550 C   0  0  0  0  0  3  0  0  0  0  0  0
   20.1260   70.3240    8.1340 C   0  0  0  0  0  3  0  0  0  0  0  0
   20.3980   69.4560    9.3220 C   0  0  0  0  0  1  0  0  0  0  0  0
   16.2770   70.2780    7.9340 C   0  0  0  0  0  3  0  0  0  0  0  0
   15.4430   70.2350    8.8330 O   0  0  0  0  0  0  0  0  0  0  0  0
   14.2190   65.4650    5.3790 C   0  0  0  0  0  0  0  0  0  0  0  0
   14.7980   64.8780    4.2540 C   0  0  0  0  0  3  0  0  0  0  0  0
   12.8560   65.2470    5.6320 C   0  0  0  0  0  3  0  0  0  0  0  0
   14.0270   64.0990    3.3870 C   0  0  0  0  0  3  0  0  0  0  0  0
   12.0750   64.4610    4.7710 C   0  0  0  0  0  0  0  0  0  0  0  0
   12.6720   63.8940    3.6400 C   0  0  0  0  0  3  0  0  0  0  0  0
   10.6070   64.2550    5.0430 C   0  0  0  0  0  2  0  0  0  0  0  0
    9.7370   65.1040    4.1280 C   0  0  0  0  0  1  0  0  0  0  0  0
  1  7  2  3  0  0  0
  1  5  1  0  0  0  0
  2  4  1  0  0  0  0
  2  1  1  0  0  0  0
  3  2  2  0  0  0  0
  4  6  1  0  0  0  0
  7 12  1  0  0  0  0
  8  9  1  0  0  0  0
  8  7  1  0  0  0  0
  9 10  2  0  0  0  0
 10 11  1  0  0  0  0
 12 13  2  0  0  0  0
 14 16  1  0  0  0  0
 14  4  1  0  0  0  0
 15 14  2  0  0  0  0
 17 19  2  0  0  0  0
 17 15  1  0  0  0  0
 18 20  1  0  0  0  0
 18 16  2  0  0  0  0
 19 18  1  0  0  0  0
 21 20  1  0  0  0  0
M  END
>  <MODEL>
7

>  <REMARK>
 VINA RESULT:    -7.982      3.000      7.708
 INTER + INTRA:         -10.319
 INTER:                  -9.858
 INTRA:                  -0.461
 UNBOUND:                -0.004
 SMILES C/C=C\C=C(/C=O)NC(=O)Nc1cccc(CC)c1
 SMILES IDX 8 1 9 2 10 3 11 4 5 7 4 8 3 9 2 10 1 11 6 12 7 13 12 14
 SMILES IDX 13 15 19 16 14 17 16 18 15 19 17 20 18 21
 H PARENT 8 5 11 6

>  <TORSDO>
F 5

$$$$
research/ai4chem/closed_loop/ipf_cycle1/docking_1vjy/cand_0017_dock.pdbqt
 OpenBabel03012623503D

 21 21  0  0  0  0  0  0  0  0999 V2000
   14.5470   66.7620    4.2140 N   0  0  0  0  0  4  0  0  0  0  0  0
   15.8080   67.3220    4.3580 C   0  0  0  0  0  0  0  0  0  0  0  0
   16.4560   67.2740    5.3940 O   0  0  0  0  0  0  0  0  0  0  0  0
   16.2060   67.9350    3.1830 N   0  0  0  0  0  0  0  0  0  0  0  0
   14.2290   66.6460    3.2630 H   0  0  0  0  0  0  0  0  0  0  0  0
   15.4890   68.0870    2.4900 H   0  0  0  0  0  0  0  0  0  0  0  0
   13.7990   66.1270    5.1960 C   0  0  0  0  0  0  0  0  0  0  0  0
   13.1050   65.0210    4.8560 C   0  0  0  0  0  2  0  0  0  0  0  0
   12.2120   64.2280    5.6790 C   0  0  0  0  0  3  0  0  0  0  0  0
   10.8870   64.0850    5.5140 C   0  0  0  0  0  3  0  0  0  0  0  0
    9.9930   64.6770    4.4730 C   0  0  0  0  0  1  0  0  0  0  0  0
   13.7280   66.7150    6.5800 C   0  0  0  0  0  3  0  0  0  0  0  0
   12.6840   66.9250    7.1890 O   0  0  0  0  0  0  0  0  0  0  0  0
   17.4560   68.5300    2.9050 C   0  0  0  0  0  0  0  0  0  0  0  0
   17.7300   69.2620    1.7480 C   0  0  0  0  0  3  0  0  0  0  0  0
   18.4640   68.3830    3.8690 C   0  0  0  0  0  3  0  0  0  0  0  0
   18.9950   69.8240    1.5510 C   0  0  0  0  0  3  0  0  0  0  0  0
   19.7350   68.9500    3.6830 C   0  0  0  0  0  0  0  0  0  0  0  0
   19.9930   69.6660    2.5100 C   0  0  0  0  0  3  0  0  0  0  0  0
   20.8150   68.7640    4.7180 C   0  0  0  0  0  2  0  0  0  0  0  0
   20.3250   67.9520    5.9080 C   0  0  0  0  0  1  0  0  0  0  0  0
  1  2  1  0  0  0  0
  1  7  2  0  0  0  0
  2  3  2  0  0  0  0
  4  2  1  0  0  0  0
  5  1  1  0  0  0  0
  6  4  1  0  0  0  0
  7 12  1  0  0  0  0
  8  7  1  0  0  0  0
  8  9  1  0  0  0  0
 10  9  2  0  0  0  0
 11 10  1  0  0  0  0
 12 13  2  0  0  0  0
 14  4  1  0  0  0  0
 14 16  1  0  0  0  0
 15 14  2  0  0  0  0
 17 15  1  0  0  0  0
 17 19  2  0  0  0  0
 18 16  2  0  0  0  0
 18 20  1  0  0  0  0
 19 18  1  0  0  0  0
 20 21  1  0  0  0  0
M  END
>  <MODEL>
8

>  <REMARK>
 VINA RESULT:    -7.979      1.027      1.219
 INTER + INTRA:         -10.315
 INTER:                 -10.901
 INTRA:                   0.586
 UNBOUND:                -0.004
 SMILES C/C=C\C=C(/C=O)NC(=O)Nc1cccc(CC)c1
 SMILES IDX 8 1 9 2 10 3 11 4 5 7 4 8 3 9 2 10 1 11 6 12 7 13 12 14
 SMILES IDX 13 15 19 16 14 17 16 18 15 19 17 20 18 21
 H PARENT 8 5 11 6

>  <TORSDO>
F 5

$$$$
research/ai4chem/closed_loop/ipf_cycle1/docking_1vjy/cand_0017_dock.pdbqt
 OpenBabel03012623503D

 21 21  0  0  0  0  0  0  0  0999 V2000
   17.9120   67.8230    6.0990 N   0  0  0  0  0  4  0  0  0  0  0  0
   16.5750   67.7890    5.7280 C   0  0  0  0  0  0  0  0  0  0  0  0
   16.0890   68.5220    4.8780 O   0  0  0  0  0  0  0  0  0  0  0  0
   15.8940   66.8290    6.4550 N   0  0  0  0  0  0  0  0  0  0  0  0
   18.2420   67.0190    6.6110 H   0  0  0  0  0  0  0  0  0  0  0  0
   16.3660   66.4590    7.2650 H   0  0  0  0  0  0  0  0  0  0  0  0
   18.8840   68.7010    5.6360 C   0  0  0  0  0  0  0  0  0  0  0  0
   19.4580   68.4460    4.4410 C   0  0  0  0  0  2  0  0  0  0  0  0
   20.5270   69.1710    3.7830 C   0  0  0  0  0  3  0  0  0  0  0  0
   20.4990   69.6900    2.5450 C   0  0  0  0  0  3  0  0  0  0  0  0
   19.3970   69.6700    1.5350 C   0  0  0  0  0  1  0  0  0  0  0  0
   19.3140   69.8610    6.4930 C   0  0  0  0  0  3  0  0  0  0  0  0
   18.6420   70.3330    7.4050 O   0  0  0  0  0  0  0  0  0  0  0  0
   14.5480   66.4300    6.3010 C   0  0  0  0  0  0  0  0  0  0  0  0
   13.4900   66.9570    7.0420 C   0  0  0  0  0  3  0  0  0  0  0  0
   14.2750   65.4590    5.3260 C   0  0  0  0  0  3  0  0  0  0  0  0
   12.1830   66.5110    6.8240 C   0  0  0  0  0  3  0  0  0  0  0  0
   12.9650   65.0100    5.0950 C   0  0  0  0  0  0  0  0  0  0  0  0
   11.9220   65.5400    5.8590 C   0  0  0  0  0  3  0  0  0  0  0  0
   12.6910   63.9490    4.0600 C   0  0  0  0  0  2  0  0  0  0  0  0
   11.2110   63.8550    3.7230 C   0  0  0  0  0  1  0  0  0  0  0  0
  1  5  1  0  0  0  0
  2  1  1  0  0  0  0
  2  4  1  0  0  0  0
  3  2  2  0  0  0  0
  4  6  1  0  0  0  0
  7  1  2  3  0  0  0
  7 12  1  0  0  0  0
  8  7  1  0  0  0  0
  9  8  1  0  0  0  0
 10  9  2  0  0  0  0
 11 10  1  0  0  0  0
 12 13  2  0  0  0  0
 14  4  1  0  0  0  0
 14 15  1  0  0  0  0
 16 14  2  0  0  0  0
 17 15  2  0  0  0  0
 18 16  1  0  0  0  0
 18 19  2  0  0  0  0
 19 17  1  0  0  0  0
 20 18  1  0  0  0  0
 21 20  1  0  0  0  0
M  END
>  <MODEL>
9

>  <REMARK>
 VINA RESULT:    -7.946      1.894      7.653
 INTER + INTRA:         -10.273
 INTER:                  -9.780
 INTRA:                  -0.493
 UNBOUND:                -0.004
 SMILES C/C=C\C=C(/C=O)NC(=O)Nc1cccc(CC)c1
 SMILES IDX 8 1 9 2 10 3 11 4 5 7 4 8 3 9 2 10 1 11 6 12 7 13 12 14
 SMILES IDX 13 15 19 16 14 17 16 18 15 19 17 20 18 21
 H PARENT 8 5 11 6

>  <TORSDO>
F 5

$$$$
research/ai4chem/closed_loop/ipf_cycle1/docking_1vjy/cand_0017_dock.pdbqt
 OpenBabel03012623503D

 21 21  0  0  0  0  0  0  0  0999 V2000
   17.4630   68.0180    3.3340 N   0  0  0  0  0  4  0  0  0  0  0  0
   16.5180   67.9640    4.3480 C   0  0  0  0  0  0  0  0  0  0  0  0
   16.4350   68.7940    5.2420 O   0  0  0  0  0  0  0  0  0  0  0  0
   15.7090   66.8510    4.1990 N   0  0  0  0  0  0  0  0  0  0  0  0
   17.2750   67.4360    2.5320 H   0  0  0  0  0  0  0  0  0  0  0  0
   16.0290   66.1460    3.5540 H   0  0  0  0  0  0  0  0  0  0  0  0
   18.4830   68.9510    3.1930 C   0  0  0  0  0  0  0  0  0  0  0  0
   19.6310   68.7510    3.8740 C   0  0  0  0  0  2  0  0  0  0  0  0
   20.8010   69.6050    3.9380 C   0  0  0  0  0  3  0  0  0  0  0  0
   21.2110   70.3220    4.9960 C   0  0  0  0  0  3  0  0  0  0  0  0
   20.6030   70.4360    6.3570 C   0  0  0  0  0  1  0  0  0  0  0  0
   18.2630   70.1790    2.3500 C   0  0  0  0  0  3  0  0  0  0  0  0
   17.3830   70.2860    1.5020 O   0  0  0  0  0  0  0  0  0  0  0  0
   14.5800   66.5010    4.9710 C   0  0  0  0  0  0  0  0  0  0  0  0
   14.2240   67.1330    6.1630 C   0  0  0  0  0  3  0  0  0  0  0  0
   13.7660   65.4670    4.4840 C   0  0  0  0  0  3  0  0  0  0  0  0
   13.0850   66.7290    6.8650 C   0  0  0  0  0  3  0  0  0  0  0  0
   12.6170   65.0590    5.1780 C   0  0  0  0  0  0  0  0  0  0  0  0
   12.2870   65.6960    6.3790 C   0  0  0  0  0  3  0  0  0  0  0  0
   11.7660   63.9300    4.6540 C   0  0  0  0  0  2  0  0  0  0  0  0
   10.2850   64.2800    4.6770 C   0  0  0  0  0  1  0  0  0  0  0  0
  1  2  1  0  0  0  0
  2  3  2  0  0  0  0
  4  2  1  0  0  0  0
  4 14  1  0  0  0  0
  5  1  1  0  0  0  0
  6  4  1  0  0  0  0
  7  1  2  0  0  0  0
  7  8  1  0  0  0  0
  8  9  1  0  0  0  0
  9 10  2  0  0  0  0
 10 11  1  0  0  0  0
 12  7  1  0  0  0  0
 13 12  2  0  0  0  0
 14 15  1  0  0  0  0
 15 17  2  0  0  0  0
 16 14  2  0  0  0  0
 16 18  1  0  0  0  0
 18 19  2  0  0  0  0
 19 17  1  0  0  0  0
 20 21  1  0  0  0  0
 20 18  1  0  0  0  0
M  END
>  <MODEL>
10

>  <REMARK>
 VINA RESULT:    -7.945      1.605      7.989
 INTER + INTRA:         -10.271
 INTER:                 -10.188
 INTRA:                  -0.084
 UNBOUND:                -0.004
 SMILES C/C=C\C=C(/C=O)NC(=O)Nc1cccc(CC)c1
 SMILES IDX 8 1 9 2 10 3 11 4 5 7 4 8 3 9 2 10 1 11 6 12 7 13 12 14
 SMILES IDX 13 15 19 16 14 17 16 18 15 19 17 20 18 21
 H PARENT 8 5 11 6

>  <TORSDO>
F 5

$$$$
research/ai4chem/closed_loop/ipf_cycle1/docking_1vjy/cand_0017_dock.pdbqt
 OpenBabel03012623503D

 21 21  0  0  0  0  0  0  0  0999 V2000
   18.6330   69.4900    4.2530 N   0  0  0  0  0  4  0  0  0  0  0  0
   17.9640   68.4580    4.8960 C   0  0  0  0  0  0  0  0  0  0  0  0
   18.4860   67.7260    5.7250 O   0  0  0  0  0  0  0  0  0  0  0  0
   16.6530   68.3810    4.4590 N   0  0  0  0  0  0  0  0  0  0  0  0
   18.0450   70.1690    3.7920 H   0  0  0  0  0  0  0  0  0  0  0  0
   16.4270   68.8970    3.6240 H   0  0  0  0  0  0  0  0  0  0  0  0
   19.9740   69.8240    4.3830 C   0  0  0  0  0  0  0  0  0  0  0  0
   20.8310   69.4150    3.4240 C   0  0  0  0  0  2  0  0  0  0  0  0
   22.2700   69.5830    3.3700 C   0  0  0  0  0  3  0  0  0  0  0  0
   22.9940   69.9470    2.3000 C   0  0  0  0  0  3  0  0  0  0  0  0
   22.5380   70.2730    0.9140 C   0  0  0  0  0  1  0  0  0  0  0  0
   20.4450   70.5680    5.6050 C   0  0  0  0  0  3  0  0  0  0  0  0
   19.7560   70.7670    6.6000 O   0  0  0  0  0  0  0  0  0  0  0  0
   15.6360   67.5290    4.9420 C   0  0  0  0  0  0  0  0  0  0  0  0
   14.9250   67.7550    6.1210 C   0  0  0  0  0  3  0  0  0  0  0  0
   15.3220   66.4030    4.1670 C   0  0  0  0  0  3  0  0  0  0  0  0
   13.9280   66.8640    6.5270 C   0  0  0  0  0  3  0  0  0  0  0  0
   14.3170   65.5060    4.5620 C   0  0  0  0  0  0  0  0  0  0  0  0
   13.6270   65.7440    5.7550 C   0  0  0  0  0  3  0  0  0  0  0  0
   14.0070   64.2880    3.7300 C   0  0  0  0  0  2  0  0  0  0  0  0
   12.5430   63.8880    3.8360 C   0  0  0  0  0  1  0  0  0  0  0  0
  1  7  2  3  0  0  0
  1  2  1  0  0  0  0
  2  3  2  0  0  0  0
  4  2  1  0  0  0  0
  4 14  1  0  0  0  0
  5  1  1  0  0  0  0
  6  4  1  0  0  0  0
  7 12  1  0  0  0  0
  8  7  1  0  0  0  0
  9  8  1  0  0  0  0
 10  9  2  0  0  0  0
 11 10  1  0  0  0  0
 12 13  2  0  0  0  0
 14 15  1  0  0  0  0
 15 17  2  0  0  0  0
 16 18  1  0  0  0  0
 16 14  2  0  0  0  0
 18 19  2  0  0  0  0
 19 17  1  0  0  0  0
 20 21  1  0  0  0  0
 20 18  1  0  0  0  0
M  END
>  <MODEL>
11

>  <REMARK>
 VINA RESULT:    -7.931      2.378      8.096
 INTER + INTRA:         -10.253
 INTER:                  -9.773
 INTRA:                  -0.480
 UNBOUND:                -0.004
 SMILES C/C=C\C=C(/C=O)NC(=O)Nc1cccc(CC)c1
 SMILES IDX 8 1 9 2 10 3 11 4 5 7 4 8 3 9 2 10 1 11 6 12 7 13 12 14
 SMILES IDX 13 15 19 16 14 17 16 18 15 19 17 20 18 21
 H PARENT 8 5 11 6

>  <TORSDO>
F 5

$$$$
research/ai4chem/closed_loop/ipf_cycle1/docking_1vjy/cand_0017_dock.pdbqt
 OpenBabel03012623503D

 21 21  0  0  0  0  0  0  0  0999 V2000
   14.5430   66.2890    3.9820 N   0  0  0  0  0  4  0  0  0  0  0  0
   15.6140   66.7860    4.7110 C   0  0  0  0  0  0  0  0  0  0  0  0
   15.9420   66.3590    5.8090 O   0  0  0  0  0  0  0  0  0  0  0  0
   16.2320   67.8180    4.0270 N   0  0  0  0  0  0  0  0  0  0  0  0
   14.5280   66.5420    3.0050 H   0  0  0  0  0  0  0  0  0  0  0  0
   15.7260   68.2060    3.2460 H   0  0  0  0  0  0  0  0  0  0  0  0
   13.6510   65.3010    4.3770 C   0  0  0  0  0  0  0  0  0  0  0  0
   12.8500   65.5490    5.4360 C   0  0  0  0  0  2  0  0  0  0  0  0
   11.8940   64.6630    6.0690 C   0  0  0  0  0  3  0  0  0  0  0  0
   10.6780   64.3340    5.6040 C   0  0  0  0  0  3  0  0  0  0  0  0
    9.9940   64.7680    4.3480 C   0  0  0  0  0  1  0  0  0  0  0  0
   13.6430   63.9730    3.6690 C   0  0  0  0  0  3  0  0  0  0  0  0
   12.9730   63.7250    2.6720 O   0  0  0  0  0  0  0  0  0  0  0  0
   17.4060   68.5110    4.3950 C   0  0  0  0  0  0  0  0  0  0  0  0
   18.3610   68.9630    3.4840 C   0  0  0  0  0  3  0  0  0  0  0  0
   17.5970   68.7670    5.7600 C   0  0  0  0  0  3  0  0  0  0  0  0
   19.4960   69.6460    3.9300 C   0  0  0  0  0  3  0  0  0  0  0  0
   18.7300   69.4590    6.2180 C   0  0  0  0  0  0  0  0  0  0  0  0
   19.6820   69.8900    5.2890 C   0  0  0  0  0  3  0  0  0  0  0  0
   18.9330   69.7060    7.6910 C   0  0  0  0  0  2  0  0  0  0  0  0
   18.1640   68.7090    8.5440 C   0  0  0  0  0  1  0  0  0  0  0  0
  1  7  2  0  0  0  0
  1  2  1  0  0  0  0
  2  3  2  0  0  0  0
  4 14  1  0  0  0  0
  4  2  1  0  0  0  0
  5  1  1  0  0  0  0
  6  4  1  0  0  0  0
  7  8  1  0  0  0  0
  8  9  1  0  0  0  0
 10  9  2  0  0  0  0
 11 10  1  0  0  0  0
 12  7  1  0  0  0  0
 13 12  2  0  0  0  0
 14 16  1  0  0  0  0
 15 17  1  0  0  0  0
 15 14  2  0  0  0  0
 16 18  2  0  0  0  0
 17 19  2  0  0  0  0
 18 20  1  0  0  0  0
 19 18  1  0  0  0  0
 20 21  1  0  0  0  0
M  END
>  <MODEL>
12

>  <REMARK>
 VINA RESULT:    -7.822      2.282      2.875
 INTER + INTRA:         -10.112
 INTER:                 -10.109
 INTRA:                  -0.004
 UNBOUND:                -0.004
 SMILES C/C=C\C=C(/C=O)NC(=O)Nc1cccc(CC)c1
 SMILES IDX 8 1 9 2 10 3 11 4 5 7 4 8 3 9 2 10 1 11 6 12 7 13 12 14
 SMILES IDX 13 15 19 16 14 17 16 18 15 19 17 20 18 21
 H PARENT 8 5 11 6

>  <TORSDO>
F 5

$$$$
research/ai4chem/closed_loop/ipf_cycle1/docking_1vjy/cand_0017_dock.pdbqt
 OpenBabel03012623503D

 21 21  0  0  0  0  0  0  0  0999 V2000
   14.5530   66.5130    4.7620 N   0  0  0  0  0  4  0  0  0  0  0  0
   15.6490   67.2320    5.2180 C   0  0  0  0  0  0  0  0  0  0  0  0
   15.8600   67.4670    6.4000 O   0  0  0  0  0  0  0  0  0  0  0  0
   16.4390   67.6390    4.1580 N   0  0  0  0  0  0  0  0  0  0  0  0
   14.6200   66.1720    3.8150 H   0  0  0  0  0  0  0  0  0  0  0  0
   16.0310   67.5650    3.2390 H   0  0  0  0  0  0  0  0  0  0  0  0
   13.5110   66.0060    5.5270 C   0  0  0  0  0  0  0  0  0  0  0  0
   13.0420   64.7750    5.2320 C   0  0  0  0  0  2  0  0  0  0  0  0
   11.9330   64.0640    5.8390 C   0  0  0  0  0  3  0  0  0  0  0  0
   10.6440   64.1270    5.4690 C   0  0  0  0  0  3  0  0  0  0  0  0
   10.0120   64.9140    4.3670 C   0  0  0  0  0  1  0  0  0  0  0  0
   12.8950   66.8530    6.6090 C   0  0  0  0  0  3  0  0  0  0  0  0
   13.1840   66.7730    7.7980 O   0  0  0  0  0  0  0  0  0  0  0  0
   17.6820   68.3060    4.2190 C   0  0  0  0  0  0  0  0  0  0  0  0
   18.1390   69.1940    3.2440 C   0  0  0  0  0  3  0  0  0  0  0  0
   18.4830   68.0650    5.3450 C   0  0  0  0  0  3  0  0  0  0  0  0
   19.3820   69.8180    3.3830 C   0  0  0  0  0  3  0  0  0  0  0  0
   19.7300   68.6920    5.4970 C   0  0  0  0  0  0  0  0  0  0  0  0
   20.1750   69.5670    4.5010 C   0  0  0  0  0  3  0  0  0  0  0  0
   20.5900   68.4050    6.7010 C   0  0  0  0  0  2  0  0  0  0  0  0
   19.8600   67.5530    7.7280 C   0  0  0  0  0  1  0  0  0  0  0  0
  1  2  1  0  0  0  0
  1  7  2  0  0  0  0
  2  3  2  0  0  0  0
  4 14  1  0  0  0  0
  4  2  1  0  0  0  0
  5  1  1  0  0  0  0
  6  4  1  0  0  0  0
  7 12  1  0  0  0  0
  8  7  1  0  0  0  0
  8  9  1  0  0  0  0
 10  9  2  0  0  0  0
 11 10  1  0  0  0  0
 12 13  2  0  0  0  0
 14 16  1  0  0  0  0
 15 17  1  0  0  0  0
 15 14  2  0  0  0  0
 16 18  2  0  0  0  0
 17 19  2  0  0  0  0
 18 20  1  0  0  0  0
 19 18  1  0  0  0  0
 20 21  1  0  0  0  0
M  END
>  <MODEL>
13

>  <REMARK>
 VINA RESULT:    -7.641      1.412      1.822
 INTER + INTRA:          -9.878
 INTER:                 -10.098
 INTRA:                   0.220
 UNBOUND:                -0.004
 SMILES C/C=C\C=C(/C=O)NC(=O)Nc1cccc(CC)c1
 SMILES IDX 8 1 9 2 10 3 11 4 5 7 4 8 3 9 2 10 1 11 6 12 7 13 12 14
 SMILES IDX 13 15 19 16 14 17 16 18 15 19 17 20 18 21
 H PARENT 8 5 11 6

>  <TORSDO>
F 5

$$$$
research/ai4chem/closed_loop/ipf_cycle1/docking_1vjy/cand_0017_dock.pdbqt
 OpenBabel03012623503D

 21 21  0  0  0  0  0  0  0  0999 V2000
   21.9170   69.1440    7.4710 N   0  0  0  0  0  4  0  0  0  0  0  0
   21.1740   69.6820    6.4300 C   0  0  0  0  0  0  0  0  0  0  0  0
   20.5120   70.7060    6.5300 O   0  0  0  0  0  0  0  0  0  0  0  0
   21.2860   68.8970    5.2960 N   0  0  0  0  0  0  0  0  0  0  0  0
   22.6070   68.4570    7.2030 H   0  0  0  0  0  0  0  0  0  0  0  0
   21.6790   67.9780    5.4220 H   0  0  0  0  0  0  0  0  0  0  0  0
   21.9920   69.6160    8.7740 C   0  0  0  0  0  0  0  0  0  0  0  0
   21.0850   69.1710    9.6690 C   0  0  0  0  0  2  0  0  0  0  0  0
   20.9210   69.5600   11.0560 C   0  0  0  0  0  3  0  0  0  0  0  0
   19.8820   69.2650   11.8530 C   0  0  0  0  0  3  0  0  0  0  0  0
   18.6480   68.4770   11.5480 C   0  0  0  0  0  1  0  0  0  0  0  0
   23.0260   70.6480    9.1380 C   0  0  0  0  0  3  0  0  0  0  0  0
   22.7770   71.8290    9.3580 O   0  0  0  0  0  0  0  0  0  0  0  0
   20.7570   69.1610    4.0140 C   0  0  0  0  0  0  0  0  0  0  0  0
   21.5110   69.6480    2.9450 C   0  0  0  0  0  3  0  0  0  0  0  0
   19.3940   68.8940    3.8150 C   0  0  0  0  0  3  0  0  0  0  0  0
   20.9110   69.8790    1.7040 C   0  0  0  0  0  3  0  0  0  0  0  0
   18.7850   69.1150    2.5700 C   0  0  0  0  0  0  0  0  0  0  0  0
   19.5550   69.6180    1.5170 C   0  0  0  0  0  3  0  0  0  0  0  0
   17.3140   68.8450    2.3790 C   0  0  0  0  0  2  0  0  0  0  0  0
   16.6530   68.3720    3.6640 C   0  0  0  0  0  1  0  0  0  0  0  0
  1  7  2  3  0  0  0
  2  3  2  0  0  0  0
  2  1  1  0  0  0  0
  4  6  1  0  0  0  0
  4  2  1  0  0  0  0
  5  1  1  0  0  0  0
  7 12  1  0  0  0  0
  7  8  1  0  0  0  0
  8  9  1  0  0  0  0
  9 10  2  0  0  0  0
 11 10  1  0  0  0  0
 12 13  2  0  0  0  0
 14  4  1  0  0  0  0
 15 14  2  0  0  0  0
 16 14  1  0  0  0  0
 17 15  1  0  0  0  0
 18 16  2  0  0  0  0
 19 17  2  0  0  0  0
 19 18  1  0  0  0  0
 20 18  1  0  0  0  0
 20 21  1  0  0  0  0
M  END
>  <MODEL>
14

>  <REMARK>
 VINA RESULT:    -7.475      4.983      7.737
 INTER + INTRA:          -9.664
 INTER:                  -9.210
 INTRA:                  -0.455
 UNBOUND:                -0.004
 SMILES C/C=C\C=C(/C=O)NC(=O)Nc1cccc(CC)c1
 SMILES IDX 8 1 9 2 10 3 11 4 5 7 4 8 3 9 2 10 1 11 6 12 7 13 12 14
 SMILES IDX 13 15 19 16 14 17 16 18 15 19 17 20 18 21
 H PARENT 8 5 11 6

>  <TORSDO>
F 5

$$$$
research/ai4chem/closed_loop/ipf_cycle1/docking_1vjy/cand_0017_dock.pdbqt
 OpenBabel03012623503D

 21 21  0  0  0  0  0  0  0  0999 V2000
   14.0290   66.7490    5.6720 N   0  0  0  0  0  4  0  0  0  0  0  0
   15.2870   66.6720    5.0900 C   0  0  0  0  0  0  0  0  0  0  0  0
   15.6530   65.7390    4.3890 O   0  0  0  0  0  0  0  0  0  0  0  0
   16.0450   67.7800    5.4250 N   0  0  0  0  0  0  0  0  0  0  0  0
   13.7600   67.6610    6.0080 H   0  0  0  0  0  0  0  0  0  0  0  0
   15.6980   68.3510    6.1800 H   0  0  0  0  0  0  0  0  0  0  0  0
   13.0240   65.7920    5.6150 C   0  0  0  0  0  0  0  0  0  0  0  0
   13.0380   64.9090    4.5940 C   0  0  0  0  0  2  0  0  0  0  0  0
   12.0750   63.8710    4.2870 C   0  0  0  0  0  3  0  0  0  0  0  0
   10.7710   64.0430    4.0150 C   0  0  0  0  0  3  0  0  0  0  0  0
    9.9760   65.3070    3.9500 C   0  0  0  0  0  1  0  0  0  0  0  0
   11.9230   65.8010    6.6420 C   0  0  0  0  0  3  0  0  0  0  0  0
   11.4850   66.8140    7.1760 O   0  0  0  0  0  0  0  0  0  0  0  0
   17.3350   68.1110    4.9550 C   0  0  0  0  0  0  0  0  0  0  0  0
   18.4960   67.9950    5.7200 C   0  0  0  0  0  3  0  0  0  0  0  0
   17.4380   68.5630    3.6310 C   0  0  0  0  0  3  0  0  0  0  0  0
   19.7370   68.3400    5.1770 C   0  0  0  0  0  3  0  0  0  0  0  0
   18.6810   68.9050    3.0750 C   0  0  0  0  0  0  0  0  0  0  0  0
   19.8300   68.7960    3.8640 C   0  0  0  0  0  3  0  0  0  0  0  0
   18.7720   69.4120    1.6580 C   0  0  0  0  0  2  0  0  0  0  0  0
   20.1800   69.8720    1.3120 C   0  0  0  0  0  1  0  0  0  0  0  0
  1  5  1  0  0  0  0
  2  4  1  0  0  0  0
  2  1  1  0  0  0  0
  3  2  2  0  0  0  0
  4  6  1  0  0  0  0
  7  1  2  0  0  0  0
  7 12  1  0  0  0  0
  8  7  1  0  0  0  0
  9  8  1  0  0  0  0
 10  9  2  0  0  0  0
 11 10  1  0  0  0  0
 12 13  2  0  0  0  0
 14  4  1  0  0  0  0
 14 15  1  0  0  0  0
 16 14  2  0  0  0  0
 17 15  2  0  0  0  0
 18 16  1  0  0  0  0
 18 19  2  0  0  0  0
 19 17  1  0  0  0  0
 20 18  1  0  0  0  0
 21 20  1  0  0  0  0
M  END
>  <MODEL>
15

>  <REMARK>
 VINA RESULT:    -7.447      1.496      2.150
 INTER + INTRA:          -9.628
 INTER:                 -10.139
 INTRA:                   0.512
 UNBOUND:                -0.004
 SMILES C/C=C\C=C(/C=O)NC(=O)Nc1cccc(CC)c1
 SMILES IDX 8 1 9 2 10 3 11 4 5 7 4 8 3 9 2 10 1 11 6 12 7 13 12 14
 SMILES IDX 13 15 19 16 14 17 16 18 15 19 17 20 18 21
 H PARENT 8 5 11 6

>  <TORSDO>
F 5

$$$$
research/ai4chem/closed_loop/ipf_cycle1/docking_1vjy/cand_0017_dock.pdbqt
 OpenBabel03012623503D

 21 21  0  0  0  0  0  0  0  0999 V2000
   18.6110   69.3160    9.1260 N   0  0  0  0  0  4  0  0  0  0  0  0
   18.4390   68.5120    8.0090 C   0  0  0  0  0  0  0  0  0  0  0  0
   19.0770   67.4890    7.8060 O   0  0  0  0  0  0  0  0  0  0  0  0
   17.4650   69.0370    7.1780 N   0  0  0  0  0  0  0  0  0  0  0  0
   17.8700   69.9770    9.3060 H   0  0  0  0  0  0  0  0  0  0  0  0
   17.1850   69.9880    7.3580 H   0  0  0  0  0  0  0  0  0  0  0  0
   19.5430   69.1450   10.1420 C   0  0  0  0  0  0  0  0  0  0  0  0
   20.7420   69.7550   10.0190 C   0  0  0  0  0  2  0  0  0  0  0  0
   21.8870   69.6770   10.9040 C   0  0  0  0  0  3  0  0  0  0  0  0
   22.8610   70.5910   11.0360 C   0  0  0  0  0  3  0  0  0  0  0  0
   23.0320   71.9010   10.3340 C   0  0  0  0  0  1  0  0  0  0  0  0
   19.2250   68.2450   11.3050 C   0  0  0  0  0  3  0  0  0  0  0  0
   18.0920   68.0290   11.7230 O   0  0  0  0  0  0  0  0  0  0  0  0
   16.9410   68.4630    5.9990 C   0  0  0  0  0  0  0  0  0  0  0  0
   17.3440   68.8210    4.7120 C   0  0  0  0  0  3  0  0  0  0  0  0
   15.9730   67.4590    6.1510 C   0  0  0  0  0  3  0  0  0  0  0  0
   16.7790   68.1990    3.5950 C   0  0  0  0  0  3  0  0  0  0  0  0
   15.4040   66.8240    5.0360 C   0  0  0  0  0  0  0  0  0  0  0  0
   15.8110   67.2090    3.7550 C   0  0  0  0  0  3  0  0  0  0  0  0
   14.3470   65.7640    5.2140 C   0  0  0  0  0  2  0  0  0  0  0  0
   14.4500   64.6780    4.1540 C   0  0  0  0  0  1  0  0  0  0  0  0
  1  5  1  0  0  0  0
  1  7  2  3  0  0  0
  2  1  1  0  0  0  0
  3  2  2  0  0  0  0
  4  6  1  0  0  0  0
  4  2  1  0  0  0  0
  7 12  1  0  0  0  0
  8  7  1  0  0  0  0
  8  9  1  0  0  0  0
  9 10  2  0  0  0  0
 11 10  1  0  0  0  0
 12 13  2  0  0  0  0
 14 16  1  0  0  0  0
 14  4  1  0  0  0  0
 15 14  2  0  0  0  0
 17 19  2  0  0  0  0
 17 15  1  0  0  0  0
 18 20  1  0  0  0  0
 18 16  2  0  0  0  0
 19 18  1  0  0  0  0
 21 20  1  0  0  0  0
M  END
>  <MODEL>
16

>  <REMARK>
 VINA RESULT:    -7.434      4.736      8.053
 INTER + INTRA:          -9.611
 INTER:                  -9.103
 INTRA:                  -0.508
 UNBOUND:                -0.004
 SMILES C/C=C\C=C(/C=O)NC(=O)Nc1cccc(CC)c1
 SMILES IDX 8 1 9 2 10 3 11 4 5 7 4 8 3 9 2 10 1 11 6 12 7 13 12 14
 SMILES IDX 13 15 19 16 14 17 16 18 15 19 17 20 18 21
 H PARENT 8 5 11 6

>  <TORSDO>
F 5

$$$$
research/ai4chem/closed_loop/ipf_cycle1/docking_1vjy/cand_0017_dock.pdbqt
 OpenBabel03012623503D

 21 21  0  0  0  0  0  0  0  0999 V2000
   19.5570   68.4260    8.0890 N   0  0  0  0  0  4  0  0  0  0  0  0
   18.4400   68.7530    7.3330 C   0  0  0  0  0  0  0  0  0  0  0  0
   17.6300   69.6090    7.6560 O   0  0  0  0  0  0  0  0  0  0  0  0
   18.3830   67.9740    6.1900 N   0  0  0  0  0  0  0  0  0  0  0  0
   20.2700   67.8990    7.6080 H   0  0  0  0  0  0  0  0  0  0  0  0
   18.9870   67.1680    6.1650 H   0  0  0  0  0  0  0  0  0  0  0  0
   19.9070   68.9480    9.3280 C   0  0  0  0  0  0  0  0  0  0  0  0
   20.7410   70.0080    9.3630 C   0  0  0  0  0  2  0  0  0  0  0  0
   21.2940   70.6820   10.5210 C   0  0  0  0  0  3  0  0  0  0  0  0
   22.3290   70.2680   11.2700 C   0  0  0  0  0  3  0  0  0  0  0  0
   23.1730   69.0420   11.1240 C   0  0  0  0  0  1  0  0  0  0  0  0
   19.4070   68.2880   10.5860 C   0  0  0  0  0  3  0  0  0  0  0  0
   18.2480   68.3480   10.9840 O   0  0  0  0  0  0  0  0  0  0  0  0
   17.4550   68.0720    5.1300 C   0  0  0  0  0  0  0  0  0  0  0  0
   16.1220   67.6720    5.2220 C   0  0  0  0  0  3  0  0  0  0  0  0
   17.9150   68.6260    3.9260 C   0  0  0  0  0  3  0  0  0  0  0  0
   15.2660   67.8080    4.1260 C   0  0  0  0  0  3  0  0  0  0  0  0
   17.0610   68.7730    2.8220 C   0  0  0  0  0  0  0  0  0  0  0  0
   15.7320   68.3520    2.9300 C   0  0  0  0  0  3  0  0  0  0  0  0
   17.5760   69.3490    1.5270 C   0  0  0  0  0  2  0  0  0  0  0  0
   19.0790   69.5750    1.5660 C   0  0  0  0  0  1  0  0  0  0  0  0
  1  7  2  0  0  0  0
  2  3  2  0  0  0  0
  2  1  1  0  0  0  0
  4  2  1  0  0  0  0
  5  1  1  0  0  0  0
  6  4  1  0  0  0  0
  7  8  1  0  0  0  0
  7 12  1  0  0  0  0
  8  9  1  0  0  0  0
  9 10  2  0  0  0  0
 11 10  1  0  0  0  0
 12 13  2  0  0  0  0
 14 15  1  0  0  0  0
 14  4  1  0  0  0  0
 16 14  2  0  0  0  0
 17 15  2  0  0  0  0
 18 19  2  0  0  0  0
 18 16  1  0  0  0  0
 19 17  1  0  0  0  0
 20 21  1  0  0  0  0
 20 18  1  0  0  0  0
M  END
>  <MODEL>
17

>  <REMARK>
 VINA RESULT:    -7.408      4.364      7.340
 INTER + INTRA:          -9.577
 INTER:                  -9.028
 INTRA:                  -0.549
 UNBOUND:                -0.004
 SMILES C/C=C\C=C(/C=O)NC(=O)Nc1cccc(CC)c1
 SMILES IDX 8 1 9 2 10 3 11 4 5 7 4 8 3 9 2 10 1 11 6 12 7 13 12 14
 SMILES IDX 13 15 19 16 14 17 16 18 15 19 17 20 18 21
 H PARENT 8 5 11 6

>  <TORSDO>
F 5

$$$$
research/ai4chem/closed_loop/ipf_cycle1/docking_1vjy/cand_0017_dock.pdbqt
 OpenBabel03012623503D

 21 21  0  0  0  0  0  0  0  0999 V2000
   20.1060   68.6330    7.8250 N   0  0  0  0  0  4  0  0  0  0  0  0
   19.0260   69.0600    7.0650 C   0  0  0  0  0  0  0  0  0  0  0  0
   18.5400   70.1790    7.1490 O   0  0  0  0  0  0  0  0  0  0  0  0
   18.5910   68.0480    6.2280 N   0  0  0  0  0  0  0  0  0  0  0  0
   20.5690   67.7990    7.4940 H   0  0  0  0  0  0  0  0  0  0  0  0
   18.9390   67.1220    6.4220 H   0  0  0  0  0  0  0  0  0  0  0  0
   20.7620   69.3480    8.8180 C   0  0  0  0  0  0  0  0  0  0  0  0
   20.3520   69.1920   10.0950 C   0  0  0  0  0  2  0  0  0  0  0  0
   20.8310   69.8680   11.2840 C   0  0  0  0  0  3  0  0  0  0  0  0
   21.9020   69.5320   12.0210 C   0  0  0  0  0  3  0  0  0  0  0  0
   22.8690   68.4070   11.8270 C   0  0  0  0  0  1  0  0  0  0  0  0
   21.8540   70.3150    8.4470 C   0  0  0  0  0  3  0  0  0  0  0  0
   21.7840   71.1150    7.5200 O   0  0  0  0  0  0  0  0  0  0  0  0
   17.5830   68.1230    5.2410 C   0  0  0  0  0  0  0  0  0  0  0  0
   16.2440   67.8050    5.4700 C   0  0  0  0  0  3  0  0  0  0  0  0
   17.9670   68.5660    3.9670 C   0  0  0  0  0  3  0  0  0  0  0  0
   15.3060   67.9120    4.4390 C   0  0  0  0  0  3  0  0  0  0  0  0
   17.0310   68.6830    2.9270 C   0  0  0  0  0  0  0  0  0  0  0  0
   15.6970   68.3450    3.1730 C   0  0  0  0  0  3  0  0  0  0  0  0
   17.4630   69.1380    1.5560 C   0  0  0  0  0  2  0  0  0  0  0  0
   18.9040   69.6240    1.5480 C   0  0  0  0  0  1  0  0  0  0  0  0
  1  7  2  3  0  0  0
  2  3  2  0  0  0  0
  2  1  1  0  0  0  0
  4  6  1  0  0  0  0
  4  2  1  0  0  0  0
  5  1  1  0  0  0  0
  7  8  1  0  0  0  0
  8  9  1  0  0  0  0
  9 10  2  0  0  0  0
 11 10  1  0  0  0  0
 12  7  1  0  0  0  0
 13 12  2  0  0  0  0
 14 15  1  0  0  0  0
 14  4  1  0  0  0  0
 16 14  2  0  0  0  0
 17 15  2  0  0  0  0
 18 19  2  0  0  0  0
 18 16  1  0  0  0  0
 19 17  1  0  0  0  0
 20 18  1  0  0  0  0
 21 20  1  0  0  0  0
M  END
>  <MODEL>
18

>  <REMARK>
 VINA RESULT:    -7.316      4.606      7.642
 INTER + INTRA:          -9.458
 INTER:                  -8.864
 INTRA:                  -0.595
 UNBOUND:                -0.004
 SMILES C/C=C\C=C(/C=O)NC(=O)Nc1cccc(CC)c1
 SMILES IDX 8 1 9 2 10 3 11 4 5 7 4 8 3 9 2 10 1 11 6 12 7 13 12 14
 SMILES IDX 13 15 19 16 14 17 16 18 15 19 17 20 18 21
 H PARENT 8 5 11 6

>  <TORSDO>
F 5

$$$$
research/ai4chem/closed_loop/ipf_cycle1/docking_1vjy/cand_0017_dock.pdbqt
 OpenBabel03012623503D

 21 21  0  0  0  0  0  0  0  0999 V2000
   20.4260   68.0400    7.9830 N   0  0  0  0  0  4  0  0  0  0  0  0
   19.5470   68.6610    7.1080 C   0  0  0  0  0  0  0  0  0  0  0  0
   18.8530   69.6210    7.4120 O   0  0  0  0  0  0  0  0  0  0  0  0
   19.5700   68.0380    5.8720 N   0  0  0  0  0  0  0  0  0  0  0  0
   21.1130   67.4370    7.5560 H   0  0  0  0  0  0  0  0  0  0  0  0
   20.0170   67.1360    5.8320 H   0  0  0  0  0  0  0  0  0  0  0  0
   20.6220   68.3440    9.3240 C   0  0  0  0  0  0  0  0  0  0  0  0
   21.6840   69.1080    9.6580 C   0  0  0  0  0  2  0  0  0  0  0  0
   22.1300   69.5030   10.9790 C   0  0  0  0  0  3  0  0  0  0  0  0
   22.7430   70.6520   11.3070 C   0  0  0  0  0  3  0  0  0  0  0  0
   23.1220   71.8060   10.4350 C   0  0  0  0  0  1  0  0  0  0  0  0
   19.6970   67.7710   10.3650 C   0  0  0  0  0  3  0  0  0  0  0  0
   18.4900   67.9820   10.4080 O   0  0  0  0  0  0  0  0  0  0  0  0
   18.8910   68.4320    4.6990 C   0  0  0  0  0  0  0  0  0  0  0  0
   19.4890   69.1330    3.6510 C   0  0  0  0  0  3  0  0  0  0  0  0
   17.5390   68.0720    4.5890 C   0  0  0  0  0  3  0  0  0  0  0  0
   18.7460   69.4820    2.5190 C   0  0  0  0  0  3  0  0  0  0  0  0
   16.7870   68.4120    3.4530 C   0  0  0  0  0  0  0  0  0  0  0  0
   17.4020   69.1280    2.4220 C   0  0  0  0  0  3  0  0  0  0  0  0
   15.3300   68.0380    3.3600 C   0  0  0  0  0  2  0  0  0  0  0  0
   15.0320   66.7350    4.0870 C   0  0  0  0  0  1  0  0  0  0  0  0
  1  7  2  0  0  0  0
  2  3  2  0  0  0  0
  2  1  1  0  0  0  0
  4  2  1  0  0  0  0
  5  1  1  0  0  0  0
  6  4  1  0  0  0  0
  7  8  1  0  0  0  0
  7 12  1  0  0  0  0
  8  9  1  0  0  0  0
  9 10  2  0  0  0  0
 11 10  1  0  0  0  0
 12 13  2  0  0  0  0
 14  4  1  0  0  0  0
 15 14  2  0  0  0  0
 16 14  1  0  0  0  0
 17 15  1  0  0  0  0
 18 16  2  0  0  0  0
 19 17  2  0  0  0  0
 19 18  1  0  0  0  0
 20 18  1  0  0  0  0
 20 21  1  0  0  0  0
M  END
>  <MODEL>
19

>  <REMARK>
 VINA RESULT:    -7.155      4.468      7.758
 INTER + INTRA:          -9.250
 INTER:                  -8.718
 INTRA:                  -0.532
 UNBOUND:                -0.004
 SMILES C/C=C\C=C(/C=O)NC(=O)Nc1cccc(CC)c1
 SMILES IDX 8 1 9 2 10 3 11 4 5 7 4 8 3 9 2 10 1 11 6 12 7 13 12 14
 SMILES IDX 13 15 19 16 14 17 16 18 15 19 17 20 18 21
 H PARENT 8 5 11 6

>  <TORSDO>
F 5

$$$$
