research/ai4chem/closed_loop/ipf_cycle1/docking_1vjy/cand_0018_dock.pdbqt
 OpenBabel03012623503D

 34 33  0  0  1  0  0  0  0  0999 V2000
   19.7540   69.7160    7.7450 *   0  0  0  0  0  0  0  0  0  0  0  0
   18.6410   70.1070    7.0420 C   0  0  0  0  0  1  0  0  0  0  0  0
   20.2040   70.2040    9.1270 C   0  0  0  0  0  3  0  0  0  0  0  0
   19.6820   69.6070   10.2490 N   0  0  0  0  0  0  0  0  0  0  0  0
   21.1290   71.0120    9.2090 O   0  0  0  0  0  0  0  0  0  0  0  0
   19.0040   68.8690   10.1380 H   0  0  0  0  0  0  0  0  0  0  0  0
   20.3620   69.6930   11.5570 C   0  0  0  0  0  2  0  0  0  0  0  0
   21.3630   68.5740   11.9680 C   0  0  0  0  0  2  0  0  0  0  0  0
   22.7820   68.7470   11.5690 N   0  0  0  0  0  0  0  0  0  0  0  0
   22.9970   68.2390   10.2050 C   0  0  0  0  0  1  0  0  0  0  0  0
   23.1740   70.1510   11.6160 C   0  0  0  0  0  1  0  0  0  0  0  0
   18.2020   69.5570    5.6680 C   0  0  2  0  0  3  0  0  0  0  0  0
   18.0650   68.2010    5.6730 C   0  0  1  0  0  3  0  0  0  0  0  0
   19.0880   69.6860    4.4610 C   0  0  0  0  0  0  0  0  0  0  0  0
   19.4430   67.6660    5.4350 C   0  0  1  0  0  3  0  0  0  0  0  0
   20.0150   68.6410    4.4830 C   0  0  0  0  0  0  0  0  0  0  0  0
   19.0210   70.4600    3.3150 C   0  0  0  0  0  3  0  0  0  0  0  0
   20.1540   67.4730    6.5820 C   0  0  0  0  0  1  0  0  0  0  0  0
   21.1540   68.6490    3.6910 C   0  0  0  0  0  3  0  0  0  0  0  0
   20.0750   70.3790    2.3880 C   0  0  0  0  0  3  0  0  0  0  0  0
   21.1910   69.5680    2.6430 C   0  0  0  0  0  3  0  0  0  0  0  0
   16.9330   67.5720    6.3990 C   0  0  0  0  0  0  0  0  0  0  0  0
   16.9330   67.4910    7.6250 O   0  0  0  0  0  0  0  0  0  0  0  0
   15.8670   67.1980    5.6230 N   0  0  0  0  0  0  0  0  0  0  0  0
   15.8850   67.3570    4.6250 H   0  0  0  0  0  0  0  0  0  0  0  0
   14.6460   66.6780    6.2180 C   0  0  0  0  0  2  0  0  0  0  0  0
   13.9070   65.7210    5.3160 C   0  0  0  0  0  0  0  0  0  0  0  0
   14.5220   65.0790    4.2200 C   0  0  0  0  0  3  0  0  0  0  0  0
   12.5860   65.3820    5.6340 C   0  0  0  0  0  0  0  0  0  0  0  0
   13.8020   64.1630    3.4460 C   0  0  0  0  0  3  0  0  0  0  0  0
   11.8690   64.4640    4.8700 C   0  0  0  0  0  3  0  0  0  0  0  0
   12.4760   63.8590    3.7720 C   0  0  0  0  0  3  0  0  0  0  0  0
   11.9850   65.9520    6.6890 F   0  0  0  0  0  0  0  0  0  0  0  0
   20.7930   68.6960    7.2260 *   0  0  0  0  0  0  0  0  0  0  0  0
  3  5  2  0  0  0  0
  3  4  1  0  0  0  0
  4  7  1  0  0  0  0
  6  4  1  0  0  0  0
  7  8  1  0  0  0  0
  9 11  1  0  0  0  0
  9  8  1  0  0  0  0
 10  9  1  0  0  0  0
 12 13  1  0  0  0  0
 12  2  1  1  0  0  0
 13 22  1  1  0  0  0
 14 16  1  0  0  0  0
 14 12  1  0  0  0  0
 15 13  1  0  0  0  0
 15 18  1  1  0  0  0
 16 15  1  0  0  0  0
 17 14  2  0  0  0  0
 19 16  2  0  0  0  0
 20 21  2  0  0  0  0
 20 17  1  0  0  0  0
 21 19  1  0  0  0  0
 22 23  2  0  0  0  0
 24 26  1  0  0  0  0
 24 22  1  0  0  0  0
 25 24  1  0  0  0  0
 27 29  1  0  0  0  0
 27 26  1  0  0  0  0
 28 27  2  0  0  0  0
 29 33  1  0  0  0  0
 30 32  2  0  0  0  0
 30 28  1  0  0  0  0
 31 29  2  0  0  0  0
 32 31  1  0  0  0  0
M  END
>  <MODEL>
1

>  <REMARK>
 VINA RESULT:    -8.251      0.000      0.000
 INTER + INTRA:         -12.779
 INTER:                 -12.592
 INTRA:                  -0.187
 UNBOUND:                -0.187
 SMILES CN(C)CCNC(=O)C1=CC2=C(C(=O)NCc3ccccc3F)C(=CC1)c1ccccc12
 SMILES IDX 9 1 10 2 7 4 6 5 8 6 5 8 4 9 2 10 1 11 3 12 11 13 12 14
 SMILES IDX 32 15 24 16 27 17 31 18 25 19 28 20 30 21 29 22 13 23 14 24
 SMILES IDX 15 25 16 27 17 28 18 29 22 30 19 31 21 32 20 33 23 34 26 35
 H PARENT 6 7 15 26
 Flexibility Score:   96.900

>  <TORSDO>
F 7

$$$$
research/ai4chem/closed_loop/ipf_cycle1/docking_1vjy/cand_0018_dock.pdbqt
 OpenBabel03012623503D

 34 33  0  0  1  0  0  0  0  0999 V2000
   17.9220   69.1540    8.0270 *   0  0  0  0  0  0  0  0  0  0  0  0
   18.6520   70.2600    7.6710 C   0  0  0  0  0  1  0  0  0  0  0  0
   16.3990   68.9850    7.9730 C   0  0  0  0  0  3  0  0  0  0  0  0
   15.8670   67.9540    7.2360 N   0  0  0  0  0  0  0  0  0  0  0  0
   15.6890   69.6750    8.7050 O   0  0  0  0  0  0  0  0  0  0  0  0
   16.4920   67.3400    6.7360 H   0  0  0  0  0  0  0  0  0  0  0  0
   14.4990   67.4560    7.4790 C   0  0  0  0  0  2  0  0  0  0  0  0
   13.6070   67.0600    6.2670 C   0  0  0  0  0  2  0  0  0  0  0  0
   13.3360   65.6150    6.0590 N   0  0  0  0  0  0  0  0  0  0  0  0
   11.8870   65.3670    6.0190 C   0  0  0  0  0  1  0  0  0  0  0  0
   13.9310   65.1430    4.8140 C   0  0  0  0  0  1  0  0  0  0  0  0
   20.1920   70.3750    7.7020 C   0  0  2  0  0  3  0  0  0  0  0  0
   20.7970   69.3940    6.9730 C   0  0  1  0  0  3  0  0  0  0  0  0
   20.9570   70.2040    8.9840 C   0  0  0  0  0  0  0  0  0  0  0  0
   20.8770   68.2150    7.8920 C   0  0  1  0  0  3  0  0  0  0  0  0
   21.1430   68.8370    9.2060 C   0  0  0  0  0  0  0  0  0  0  0  0
   21.6410   71.0850    9.8030 C   0  0  0  0  0  3  0  0  0  0  0  0
   19.7790   67.4070    7.8320 C   0  0  0  0  0  1  0  0  0  0  0  0
   21.5340   68.3370   10.4400 C   0  0  0  0  0  3  0  0  0  0  0  0
   22.2090   70.5950   10.9920 C   0  0  0  0  0  3  0  0  0  0  0  0
   22.0440   69.2510   11.3610 C   0  0  0  0  0  3  0  0  0  0  0  0
   20.7260   69.4190    5.4920 C   0  0  0  0  0  0  0  0  0  0  0  0
   21.7030   69.7300    4.8150 O   0  0  0  0  0  0  0  0  0  0  0  0
   19.5500   68.9720    4.9470 N   0  0  0  0  0  0  0  0  0  0  0  0
   18.8020   68.6530    5.5480 H   0  0  0  0  0  0  0  0  0  0  0  0
   19.3880   68.8330    3.5090 C   0  0  0  0  0  2  0  0  0  0  0  0
   17.9440   68.7910    3.0750 C   0  0  0  0  0  0  0  0  0  0  0  0
   16.9460   68.1230    3.8170 C   0  0  0  0  0  3  0  0  0  0  0  0
   17.5600   69.5220    1.9450 C   0  0  0  0  0  0  0  0  0  0  0  0
   15.6130   68.1570    3.3930 C   0  0  0  0  0  3  0  0  0  0  0  0
   16.2320   69.5650    1.5250 C   0  0  0  0  0  3  0  0  0  0  0  0
   15.2600   68.8770    2.2470 C   0  0  0  0  0  3  0  0  0  0  0  0
   18.4820   70.1940    1.2380 F   0  0  0  0  0  0  0  0  0  0  0  0
   18.5370   67.8540    8.5920 *   0  0  0  0  0  0  0  0  0  0  0  0
  3  5  2  0  0  0  0
  4  7  1  0  0  0  0
  4  3  1  0  0  0  0
  6  4  1  0  0  0  0
  8  7  1  0  0  0  0
  9  8  1  0  0  0  0
 10  9  1  0  0  0  0
 11  9  1  0  0  0  0
 12  2  1  1  0  0  0
 12 14  1  0  0  0  0
 13 22  1  6  0  0  0
 13 12  1  0  0  0  0
 13 15  1  0  0  0  0
 14 16  2  0  0  0  0
 14 17  1  0  0  0  0
 15 18  1  1  0  0  0
 15 16  1  0  0  0  0
 16 19  1  0  0  0  0
 17 20  2  0  0  0  0
 19 21  2  0  0  0  0
 20 21  1  0  0  0  0
 23 22  2  0  0  0  0
 24 22  1  0  0  0  0
 24 25  1  0  0  0  0
 26 24  1  0  0  0  0
 27 26  1  0  0  0  0
 27 28  1  0  0  0  0
 29 27  2  0  0  0  0
 30 28  2  0  0  0  0
 31 29  1  0  0  0  0
 31 32  2  0  0  0  0
 32 30  1  0  0  0  0
 33 29  1  0  0  0  0
M  END
>  <MODEL>
2

>  <REMARK>
 VINA RESULT:    -8.195      2.847      6.465
 INTER + INTRA:         -12.694
 INTER:                 -12.657
 INTRA:                  -0.036
 UNBOUND:                -0.187
 SMILES CN(C)CCNC(=O)C1=CC2=C(C(=O)NCc3ccccc3F)C(=CC1)c1ccccc12
 SMILES IDX 9 1 10 2 7 4 6 5 8 6 5 8 4 9 2 10 1 11 3 12 11 13 12 14
 SMILES IDX 32 15 24 16 27 17 31 18 25 19 28 20 30 21 29 22 13 23 14 24
 SMILES IDX 15 25 16 27 17 28 18 29 22 30 19 31 21 32 20 33 23 34 26 35
 H PARENT 6 7 15 26
 Flexibility Score:   96.900

>  <TORSDO>
F 7

$$$$
research/ai4chem/closed_loop/ipf_cycle1/docking_1vjy/cand_0018_dock.pdbqt
 OpenBabel03012623503D

 34 33  0  0  1  0  0  0  0  0999 V2000
   20.2680   68.8440    6.0000 *   0  0  0  0  0  0  0  0  0  0  0  0
   20.1740   67.7550    6.8300 C   0  0  0  0  0  1  0  0  0  0  0  0
   20.4720   68.8450    4.4810 C   0  0  0  0  0  3  0  0  0  0  0  0
   19.3860   68.6510    3.6610 N   0  0  0  0  0  0  0  0  0  0  0  0
   21.5670   69.1660    4.0200 O   0  0  0  0  0  0  0  0  0  0  0  0
   18.4810   68.5000    4.0790 H   0  0  0  0  0  0  0  0  0  0  0  0
   19.4030   69.0700    2.2450 C   0  0  0  0  0  2  0  0  0  0  0  0
   18.1210   68.8840    1.3830 C   0  0  0  0  0  2  0  0  0  0  0  0
   17.1180   69.9800    1.4030 N   0  0  0  0  0  0  0  0  0  0  0  0
   15.8200   69.4770    1.8800 C   0  0  0  0  0  1  0  0  0  0  0  0
   17.5490   71.0700    2.2720 C   0  0  0  0  0  1  0  0  0  0  0  0
   19.9260   67.7980    8.3540 C   0  0  2  0  0  3  0  0  0  0  0  0
   18.7950   68.4890    8.6730 C   0  0  1  0  0  3  0  0  0  0  0  0
   20.8830   68.4990    9.2760 C   0  0  0  0  0  0  0  0  0  0  0  0
   19.2110   69.9270    8.7110 C   0  0  1  0  0  3  0  0  0  0  0  0
   20.5750   69.8610    9.2770 C   0  0  0  0  0  0  0  0  0  0  0  0
   21.7980   68.0480   10.2120 C   0  0  0  0  0  3  0  0  0  0  0  0
   19.1020   70.5540    7.5040 C   0  0  0  0  0  1  0  0  0  0  0  0
   21.4510   70.8150    9.7750 C   0  0  0  0  0  3  0  0  0  0  0  0
   22.6000   68.9920   10.8770 C   0  0  0  0  0  3  0  0  0  0  0  0
   22.5060   70.3560   10.5630 C   0  0  0  0  0  3  0  0  0  0  0  0
   17.4620   67.9120    8.3720 C   0  0  0  0  0  0  0  0  0  0  0  0
   17.1650   66.7770    8.7370 O   0  0  0  0  0  0  0  0  0  0  0  0
   16.5710   68.7610    7.7670 N   0  0  0  0  0  0  0  0  0  0  0  0
   16.8410   69.7130    7.5560 H   0  0  0  0  0  0  0  0  0  0  0  0
   15.1950   68.3620    7.5220 C   0  0  0  0  0  2  0  0  0  0  0  0
   15.0360   67.5000    6.2950 C   0  0  0  0  0  0  0  0  0  0  0  0
   15.9720   67.5000    5.2390 C   0  0  0  0  0  3  0  0  0  0  0  0
   13.9690   66.5940    6.2430 C   0  0  0  0  0  0  0  0  0  0  0  0
   15.7990   66.6440    4.1460 C   0  0  0  0  0  3  0  0  0  0  0  0
   13.8000   65.7340    5.1600 C   0  0  0  0  0  3  0  0  0  0  0  0
   14.7130   65.7640    4.1080 C   0  0  0  0  0  3  0  0  0  0  0  0
   13.0820   66.5480    7.2480 F   0  0  0  0  0  0  0  0  0  0  0  0
   20.2070   70.3110    6.4840 *   0  0  0  0  0  0  0  0  0  0  0  0
  4  6  1  0  0  0  0
  4  3  1  0  0  0  0
  5  3  2  0  0  0  0
  7  4  1  0  0  0  0
  8  9  1  0  0  0  0
  8  7  1  0  0  0  0
  9 10  1  0  0  0  0
  9 11  1  0  0  0  0
 12  2  1  6  0  0  0
 12 13  1  0  0  0  0
 12 14  1  0  0  0  0
 13 22  1  6  0  0  0
 13 15  1  0  0  0  0
 14 16  2  0  0  0  0
 14 17  1  0  0  0  0
 15 18  1  6  0  0  0
 15 16  1  0  0  0  0
 16 19  1  0  0  0  0
 17 20  2  0  0  0  0
 19 21  2  0  0  0  0
 21 20  1  0  0  0  0
 22 23  2  0  0  0  0
 24 22  1  0  0  0  0
 25 24  1  0  0  0  0
 26 24  1  0  0  0  0
 27 26  1  0  0  0  0
 28 27  2  0  0  0  0
 29 27  1  0  0  0  0
 29 33  1  0  0  0  0
 30 28  1  0  0  0  0
 31 29  2  0  0  0  0
 32 30  2  0  0  0  0
 32 31  1  0  0  0  0
M  END
>  <MODEL>
3

>  <REMARK>
 VINA RESULT:    -7.949      2.280      5.754
 INTER + INTRA:         -12.318
 INTER:                 -12.119
 INTRA:                  -0.199
 UNBOUND:                -0.187
 SMILES CN(C)CCNC(=O)C1=CC2=C(C(=O)NCc3ccccc3F)C(=CC1)c1ccccc12
 SMILES IDX 9 1 10 2 7 4 6 5 8 6 5 8 4 9 2 10 1 11 3 12 11 13 12 14
 SMILES IDX 32 15 24 16 27 17 31 18 25 19 28 20 30 21 29 22 13 23 14 24
 SMILES IDX 15 25 16 27 17 28 18 29 22 30 19 31 21 32 20 33 23 34 26 35
 H PARENT 6 7 15 26
 Flexibility Score:   96.900

>  <TORSDO>
F 7

$$$$
research/ai4chem/closed_loop/ipf_cycle1/docking_1vjy/cand_0018_dock.pdbqt
 OpenBabel03012623503D

 34 33  0  0  1  0  0  0  0  0999 V2000
   20.1670   70.0820    6.9460 *   0  0  0  0  0  0  0  0  0  0  0  0
   18.9500   70.3970    6.3940 C   0  0  0  0  0  1  0  0  0  0  0  0
   20.7970   70.6700    8.2140 C   0  0  0  0  0  3  0  0  0  0  0  0
   20.1820   70.4590    9.4250 N   0  0  0  0  0  0  0  0  0  0  0  0
   21.9120   71.1890    8.1480 O   0  0  0  0  0  0  0  0  0  0  0  0
   19.3230   69.9320    9.4490 H   0  0  0  0  0  0  0  0  0  0  0  0
   20.9180   70.5900   10.6980 C   0  0  0  0  0  2  0  0  0  0  0  0
   21.0300   69.3580   11.6420 C   0  0  0  0  0  2  0  0  0  0  0  0
   21.2750   68.0360   11.0130 N   0  0  0  0  0  0  0  0  0  0  0  0
   20.1470   67.6630   10.1460 C   0  0  0  0  0  1  0  0  0  0  0  0
   22.4970   68.0510   10.2170 C   0  0  0  0  0  1  0  0  0  0  0  0
   18.3340   69.7480    5.1350 C   0  0  2  0  0  3  0  0  0  0  0  0
   18.2500   68.3910    5.2420 C   0  0  1  0  0  3  0  0  0  0  0  0
   19.0280   69.8240    3.8040 C   0  0  0  0  0  0  0  0  0  0  0  0
   19.5980   67.8810    4.8330 C   0  0  1  0  0  3  0  0  0  0  0  0
   19.9860   68.8090    3.7500 C   0  0  0  0  0  0  0  0  0  0  0  0
   18.7650   70.5200    2.6380 C   0  0  0  0  0  3  0  0  0  0  0  0
   20.4770   67.7830    5.8710 C   0  0  0  0  0  1  0  0  0  0  0  0
   20.9960   68.7980    2.7980 C   0  0  0  0  0  3  0  0  0  0  0  0
   19.6730   70.4100    1.5700 C   0  0  0  0  0  3  0  0  0  0  0  0
   20.8440   69.6490    1.7040 C   0  0  0  0  0  3  0  0  0  0  0  0
   17.2620   67.7790    6.1630 C   0  0  0  0  0  0  0  0  0  0  0  0
   17.4860   67.6970    7.3690 O   0  0  0  0  0  0  0  0  0  0  0  0
   16.0660   67.4200    5.5980 N   0  0  0  0  0  0  0  0  0  0  0  0
   15.9030   67.5800    4.6120 H   0  0  0  0  0  0  0  0  0  0  0  0
   14.9680   66.9180    6.4070 C   0  0  0  0  0  2  0  0  0  0  0  0
   14.0550   65.9820    5.6550 C   0  0  0  0  0  0  0  0  0  0  0  0
   14.5020   65.1840    4.5800 C   0  0  0  0  0  3  0  0  0  0  0  0
   12.7370   65.8260    6.1000 C   0  0  0  0  0  0  0  0  0  0  0  0
   13.6230   64.2980    3.9490 C   0  0  0  0  0  3  0  0  0  0  0  0
   11.8620   64.9380    5.4790 C   0  0  0  0  0  3  0  0  0  0  0  0
   12.3050   64.1770    4.3990 C   0  0  0  0  0  3  0  0  0  0  0  0
   12.2930   66.5470    7.1410 F   0  0  0  0  0  0  0  0  0  0  0  0
   21.1570   69.0620    6.3380 *   0  0  0  0  0  0  0  0  0  0  0  0
  3  4  1  0  0  0  0
  4  6  1  0  0  0  0
  4  7  1  0  0  0  0
  5  3  2  0  0  0  0
  7  8  1  0  0  0  0
  9  8  1  0  0  0  0
 10  9  1  0  0  0  0
 11  9  1  0  0  0  0
 12 13  1  0  0  0  0
 12  2  1  1  0  0  0
 13 22  1  1  0  0  0
 14 12  1  0  0  0  0
 15 13  1  0  0  0  0
 15 18  1  1  0  0  0
 16 14  1  0  0  0  0
 16 15  1  0  0  0  0
 17 14  2  0  0  0  0
 19 16  2  0  0  0  0
 20 21  2  0  0  0  0
 20 17  1  0  0  0  0
 21 19  1  0  0  0  0
 22 23  2  0  0  0  0
 24 22  1  0  0  0  0
 24 26  1  0  0  0  0
 25 24  1  0  0  0  0
 27 29  1  0  0  0  0
 27 26  1  0  0  0  0
 28 27  2  0  0  0  0
 29 33  1  0  0  0  0
 30 32  2  0  0  0  0
 30 28  1  0  0  0  0
 31 29  2  0  0  0  0
 32 31  1  0  0  0  0
M  END
>  <MODEL>
4

>  <REMARK>
 VINA RESULT:    -7.543      0.944      1.087
 INTER + INTRA:         -11.699
 INTER:                 -12.128
 INTRA:                   0.429
 UNBOUND:                -0.187
 SMILES CN(C)CCNC(=O)C1=CC2=C(C(=O)NCc3ccccc3F)C(=CC1)c1ccccc12
 SMILES IDX 9 1 10 2 7 4 6 5 8 6 5 8 4 9 2 10 1 11 3 12 11 13 12 14
 SMILES IDX 32 15 24 16 27 17 31 18 25 19 28 20 30 21 29 22 13 23 14 24
 SMILES IDX 15 25 16 27 17 28 18 29 22 30 19 31 21 32 20 33 23 34 26 35
 H PARENT 6 7 15 26
 Flexibility Score:   96.900

>  <TORSDO>
F 7

$$$$
research/ai4chem/closed_loop/ipf_cycle1/docking_1vjy/cand_0018_dock.pdbqt
 OpenBabel03012623503D

 34 33  0  0  1  0  0  0  0  0999 V2000
   19.4130   68.6080    5.9430 *   0  0  0  0  0  0  0  0  0  0  0  0
   18.7670   67.6890    6.7320 C   0  0  0  0  0  1  0  0  0  0  0  0
   19.8620   68.4370    4.4870 C   0  0  0  0  0  3  0  0  0  0  0  0
   19.1620   69.0780    3.4930 N   0  0  0  0  0  0  0  0  0  0  0  0
   20.9210   67.8570    4.2470 O   0  0  0  0  0  0  0  0  0  0  0  0
   18.3610   69.6360    3.7430 H   0  0  0  0  0  0  0  0  0  0  0  0
   19.7620   69.3320    2.1670 C   0  0  0  0  0  2  0  0  0  0  0  0
   20.9280   70.3550    2.0440 C   0  0  0  0  0  2  0  0  0  0  0  0
   22.3060   69.8120    1.9390 N   0  0  0  0  0  0  0  0  0  0  0  0
   22.9880   70.3720    0.7620 C   0  0  0  0  0  1  0  0  0  0  0  0
   23.0870   70.1250    3.1300 C   0  0  0  0  0  1  0  0  0  0  0  0
   18.2940   67.9180    8.1840 C   0  0  2  0  0  3  0  0  0  0  0  0
   17.4780   69.0040    8.2960 C   0  0  1  0  0  3  0  0  0  0  0  0
   19.2710   68.2600    9.2740 C   0  0  0  0  0  0  0  0  0  0  0  0
   18.4000   70.1770    8.4220 C   0  0  1  0  0  3  0  0  0  0  0  0
   19.5140   69.6350    9.2300 C   0  0  0  0  0  0  0  0  0  0  0  0
   19.7660   67.5560   10.3570 C   0  0  0  0  0  3  0  0  0  0  0  0
   18.7510   70.7210    7.2220 C   0  0  0  0  0  1  0  0  0  0  0  0
   20.5870   70.2160    9.8900 C   0  0  0  0  0  3  0  0  0  0  0  0
   20.7390   68.1660   11.1670 C   0  0  0  0  0  3  0  0  0  0  0  0
   21.2310   69.4420   10.8540 C   0  0  0  0  0  3  0  0  0  0  0  0
   16.0990   68.9570    7.7490 C   0  0  0  0  0  0  0  0  0  0  0  0
   15.6230   69.9170    7.1470 O   0  0  0  0  0  0  0  0  0  0  0  0
   15.4550   67.7530    7.8670 N   0  0  0  0  0  0  0  0  0  0  0  0
   15.9210   66.9690    8.3050 H   0  0  0  0  0  0  0  0  0  0  0  0
   14.1470   67.5340    7.2720 C   0  0  0  0  0  2  0  0  0  0  0  0
   14.1790   66.5820    6.1020 C   0  0  0  0  0  0  0  0  0  0  0  0
   15.2900   66.4750    5.2390 C   0  0  0  0  0  3  0  0  0  0  0  0
   13.1050   65.7030    5.9220 C   0  0  0  0  0  0  0  0  0  0  0  0
   15.2850   65.5390    4.1980 C   0  0  0  0  0  3  0  0  0  0  0  0
   13.1000   64.7640    4.8920 C   0  0  0  0  0  3  0  0  0  0  0  0
   14.1890   64.6870    4.0270 C   0  0  0  0  0  3  0  0  0  0  0  0
   12.0480   65.7590    6.7470 F   0  0  0  0  0  0  0  0  0  0  0  0
   19.8370   70.0150    6.4210 *   0  0  0  0  0  0  0  0  0  0  0  0
  4  6  1  0  0  0  0
  4  3  1  0  0  0  0
  5  3  2  0  0  0  0
  7  4  1  0  0  0  0
  8  7  1  0  0  0  0
  9  8  1  0  0  0  0
  9 11  1  0  0  0  0
 10  9  1  0  0  0  0
 12  2  1  6  0  0  0
 12 13  1  0  0  0  0
 12 14  1  0  0  0  0
 13 22  1  6  0  0  0
 13 15  1  0  0  0  0
 14 17  1  0  0  0  0
 15 18  1  6  0  0  0
 15 16  1  0  0  0  0
 16 14  2  0  0  0  0
 16 19  1  0  0  0  0
 17 20  2  0  0  0  0
 19 21  2  0  0  0  0
 21 20  1  0  0  0  0
 22 24  1  0  0  0  0
 23 22  2  0  0  0  0
 24 25  1  0  0  0  0
 26 24  1  0  0  0  0
 27 26  1  0  0  0  0
 28 27  2  0  0  0  0
 29 27  1  0  0  0  0
 29 33  1  0  0  0  0
 30 28  1  0  0  0  0
 31 29  2  0  0  0  0
 32 30  2  0  0  0  0
 32 31  1  0  0  0  0
M  END
>  <MODEL>
5

>  <REMARK>
 VINA RESULT:    -6.991      2.392      5.307
 INTER + INTRA:         -10.857
 INTER:                 -10.538
 INTRA:                  -0.319
 UNBOUND:                -0.187
 SMILES CN(C)CCNC(=O)C1=CC2=C(C(=O)NCc3ccccc3F)C(=CC1)c1ccccc12
 SMILES IDX 9 1 10 2 7 4 6 5 8 6 5 8 4 9 2 10 1 11 3 12 11 13 12 14
 SMILES IDX 32 15 24 16 27 17 31 18 25 19 28 20 30 21 29 22 13 23 14 24
 SMILES IDX 15 25 16 27 17 28 18 29 22 30 19 31 21 32 20 33 23 34 26 35
 H PARENT 6 7 15 26
 Flexibility Score:   96.900

>  <TORSDO>
F 7

$$$$
research/ai4chem/closed_loop/ipf_cycle1/docking_1vjy/cand_0018_dock.pdbqt
 OpenBabel03012623503D

 34 33  0  0  1  0  0  0  0  0999 V2000
   17.5000   68.1040    6.1560 *   0  0  0  0  0  0  0  0  0  0  0  0
   17.7830   67.4110    5.0050 C   0  0  0  0  0  1  0  0  0  0  0  0
   18.4830   68.5390    7.2490 C   0  0  0  0  0  3  0  0  0  0  0  0
   18.9690   67.5970    8.1230 N   0  0  0  0  0  0  0  0  0  0  0  0
   18.9340   69.6850    7.2330 O   0  0  0  0  0  0  0  0  0  0  0  0
   18.6570   66.6420    8.0330 H   0  0  0  0  0  0  0  0  0  0  0  0
   20.2120   67.8210    8.8870 C   0  0  0  0  0  2  0  0  0  0  0  0
   20.1340   67.9960   10.4310 C   0  0  0  0  0  2  0  0  0  0  0  0
   20.4880   69.3260   10.9880 N   0  0  0  0  0  0  0  0  0  0  0  0
   21.5720   69.1980   11.9740 C   0  0  0  0  0  1  0  0  0  0  0  0
   20.9150   70.2400    9.9330 C   0  0  0  0  0  1  0  0  0  0  0  0
   16.7660   67.0290    3.9070 C   0  0  2  0  0  3  0  0  0  0  0  0
   16.0950   68.1130    3.4250 C   0  0  1  0  0  3  0  0  0  0  0  0
   15.5840   66.1540    4.2150 C   0  0  0  0  0  0  0  0  0  0  0  0
   14.9640   68.3320    4.3820 C   0  0  1  0  0  3  0  0  0  0  0  0
   14.5720   66.9550    4.7490 C   0  0  0  0  0  0  0  0  0  0  0  0
   15.2640   64.8470    3.8930 C   0  0  0  0  0  3  0  0  0  0  0  0
   15.2860   69.1520    5.4220 C   0  0  0  0  0  1  0  0  0  0  0  0
   13.4800   66.4170    5.4150 C   0  0  0  0  0  3  0  0  0  0  0  0
   14.0750   64.3000    4.4050 C   0  0  0  0  0  3  0  0  0  0  0  0
   13.2550   65.0500    5.2630 C   0  0  0  0  0  3  0  0  0  0  0  0
   16.7980   69.1020    2.5700 C   0  0  0  0  0  0  0  0  0  0  0  0
   16.2520   70.1510    2.2360 O   0  0  0  0  0  0  0  0  0  0  0  0
   18.1060   68.8120    2.2810 N   0  0  0  0  0  0  0  0  0  0  0  0
   18.5310   67.9700    2.6460 H   0  0  0  0  0  0  0  0  0  0  0  0
   18.9440   69.7500    1.5530 C   0  0  0  0  0  2  0  0  0  0  0  0
   20.3740   69.7660    2.0320 C   0  0  0  0  0  0  0  0  0  0  0  0
   21.4730   69.7450    1.1470 C   0  0  0  0  0  3  0  0  0  0  0  0
   20.6220   69.9020    3.4030 C   0  0  0  0  0  0  0  0  0  0  0  0
   22.7790   69.8100    1.6460 C   0  0  0  0  0  3  0  0  0  0  0  0
   21.9210   69.9750    3.9020 C   0  0  0  0  0  3  0  0  0  0  0  0
   22.9990   69.9230    3.0220 C   0  0  0  0  0  3  0  0  0  0  0  0
   19.5960   69.9560    4.2660 F   0  0  0  0  0  0  0  0  0  0  0  0
   16.0790   68.5470    6.5740 *   0  0  0  0  0  0  0  0  0  0  0  0
  3  4  1  0  0  0  0
  4  7  1  0  0  0  0
  5  3  2  0  0  0  0
  6  4  1  0  0  0  0
  7  8  1  0  0  0  0
  8  9  1  0  0  0  0
  9 10  1  0  0  0  0
 11  9  1  0  0  0  0
 12 14  1  0  0  0  0
 12  2  1  1  0  0  0
 13 22  1  1  0  0  0
 13 12  1  0  0  0  0
 13 15  1  0  0  0  0
 14 16  1  0  0  0  0
 15 16  1  0  0  0  0
 15 18  1  1  0  0  0
 16 19  2  0  0  0  0
 17 14  2  0  0  0  0
 17 20  1  0  0  0  0
 20 21  2  0  0  0  0
 21 19  1  0  0  0  0
 23 22  2  0  0  0  0
 24 22  1  0  0  0  0
 24 25  1  0  0  0  0
 26 27  1  0  0  0  0
 26 24  1  0  0  0  0
 27 29  1  0  0  0  0
 28 30  1  0  0  0  0
 28 27  2  0  0  0  0
 29 31  2  0  0  0  0
 29 33  1  0  0  0  0
 30 32  2  0  0  0  0
 32 31  1  0  0  0  0
M  END
>  <MODEL>
6

>  <REMARK>
 VINA RESULT:    -6.980      2.736      6.383
 INTER + INTRA:         -10.840
 INTER:                 -10.669
 INTRA:                  -0.171
 UNBOUND:                -0.187
 SMILES CN(C)CCNC(=O)C1=CC2=C(C(=O)NCc3ccccc3F)C(=CC1)c1ccccc12
 SMILES IDX 9 1 10 2 7 4 6 5 8 6 5 8 4 9 2 10 1 11 3 12 11 13 12 14
 SMILES IDX 32 15 24 16 27 17 31 18 25 19 28 20 30 21 29 22 13 23 14 24
 SMILES IDX 15 25 16 27 17 28 18 29 22 30 19 31 21 32 20 33 23 34 26 35
 H PARENT 6 7 15 26
 Flexibility Score:   96.900

>  <TORSDO>
F 7

$$$$
research/ai4chem/closed_loop/ipf_cycle1/docking_1vjy/cand_0018_dock.pdbqt
 OpenBabel03012623503D

 34 33  0  0  1  0  0  0  0  0999 V2000
   20.9800   69.7930    6.9540 *   0  0  0  0  0  0  0  0  0  0  0  0
   21.1030   68.4710    7.3030 C   0  0  0  0  0  1  0  0  0  0  0  0
   21.1970   70.4160    5.5710 C   0  0  0  0  0  3  0  0  0  0  0  0
   22.4720   70.7530    5.1820 N   0  0  0  0  0  0  0  0  0  0  0  0
   20.2570   70.4650    4.7770 O   0  0  0  0  0  0  0  0  0  0  0  0
   23.2340   70.5940    5.8220 H   0  0  0  0  0  0  0  0  0  0  0  0
   22.8250   70.9280    3.7590 C   0  0  0  0  0  2  0  0  0  0  0  0
   23.1540   69.6750    2.8980 C   0  0  0  0  0  2  0  0  0  0  0  0
   22.5700   69.6090    1.5340 N   0  0  0  0  0  0  0  0  0  0  0  0
   21.1050   69.7250    1.5980 C   0  0  0  0  0  1  0  0  0  0  0  0
   23.0910   70.6770    0.6880 C   0  0  0  0  0  1  0  0  0  0  0  0
   20.8330   67.8780    8.7040 C   0  0  2  0  0  3  0  0  0  0  0  0
   19.5810   68.1690    9.1560 C   0  0  1  0  0  3  0  0  0  0  0  0
   21.6150   68.3340    9.9030 C   0  0  0  0  0  0  0  0  0  0  0  0
   19.6910   69.5320    9.7660 C   0  0  1  0  0  3  0  0  0  0  0  0
   21.0320   69.5080   10.3860 C   0  0  0  0  0  0  0  0  0  0  0  0
   22.5920   67.7370   10.6800 C   0  0  0  0  0  3  0  0  0  0  0  0
   19.4690   70.5420    8.8770 C   0  0  0  0  0  1  0  0  0  0  0  0
   21.6860   70.3420   11.2820 C   0  0  0  0  0  3  0  0  0  0  0  0
   23.1740   68.4830   11.7190 C   0  0  0  0  0  3  0  0  0  0  0  0
   22.8040   69.8200   11.9320 C   0  0  0  0  0  3  0  0  0  0  0  0
   18.3990   67.5150    8.5420 C   0  0  0  0  0  0  0  0  0  0  0  0
   17.9620   66.4540    8.9810 O   0  0  0  0  0  0  0  0  0  0  0  0
   17.7820   68.2220    7.5420 N   0  0  0  0  0  0  0  0  0  0  0  0
   18.1380   69.1290    7.2690 H   0  0  0  0  0  0  0  0  0  0  0  0
   16.5470   67.7520    6.9360 C   0  0  0  0  0  2  0  0  0  0  0  0
   16.4590   68.0510    5.4600 C   0  0  0  0  0  0  0  0  0  0  0  0
   17.5800   68.4350    4.6940 C   0  0  0  0  0  3  0  0  0  0  0  0
   15.2390   67.8480    4.8050 C   0  0  0  0  0  0  0  0  0  0  0  0
   17.4500   68.6530    3.3180 C   0  0  0  0  0  3  0  0  0  0  0  0
   15.1080   68.0560    3.4330 C   0  0  0  0  0  3  0  0  0  0  0  0
   16.2140   68.4640    2.6910 C   0  0  0  0  0  3  0  0  0  0  0  0
   14.1630   67.4510    5.5020 F   0  0  0  0  0  0  0  0  0  0  0  0
   20.6110   70.9210    7.9440 *   0  0  0  0  0  0  0  0  0  0  0  0
  4  3  1  0  0  0  0
  4  6  1  0  0  0  0
  5  3  2  0  0  0  0
  7  4  1  0  0  0  0
  8  7  1  0  0  0  0
  9 10  1  0  0  0  0
  9  8  1  0  0  0  0
 11  9  1  0  0  0  0
 12  2  1  6  0  0  0
 12 13  1  0  0  0  0
 12 14  1  0  0  0  0
 13 22  1  6  0  0  0
 13 15  1  0  0  0  0
 14 16  2  0  0  0  0
 14 17  1  0  0  0  0
 15 18  1  6  0  0  0
 15 16  1  0  0  0  0
 16 19  1  0  0  0  0
 17 20  2  0  0  0  0
 19 21  2  0  0  0  0
 20 21  1  0  0  0  0
 22 23  2  0  0  0  0
 24 22  1  0  0  0  0
 25 24  1  0  0  0  0
 26 24  1  0  0  0  0
 27 26  1  0  0  0  0
 28 27  2  0  0  0  0
 29 27  1  0  0  0  0
 29 33  1  0  0  0  0
 30 28  1  0  0  0  0
 31 29  2  0  0  0  0
 32 30  2  0  0  0  0
 32 31  1  0  0  0  0
M  END
>  <MODEL>
7

>  <REMARK>
 VINA RESULT:    -6.767      2.684      5.925
 INTER + INTRA:         -10.515
 INTER:                 -10.214
 INTRA:                  -0.301
 UNBOUND:                -0.187
 SMILES CN(C)CCNC(=O)C1=CC2=C(C(=O)NCc3ccccc3F)C(=CC1)c1ccccc12
 SMILES IDX 9 1 10 2 7 4 6 5 8 6 5 8 4 9 2 10 1 11 3 12 11 13 12 14
 SMILES IDX 32 15 24 16 27 17 31 18 25 19 28 20 30 21 29 22 13 23 14 24
 SMILES IDX 15 25 16 27 17 28 18 29 22 30 19 31 21 32 20 33 23 34 26 35
 H PARENT 6 7 15 26
 Flexibility Score:   96.900

>  <TORSDO>
F 7

$$$$
research/ai4chem/closed_loop/ipf_cycle1/docking_1vjy/cand_0018_dock.pdbqt
 OpenBabel03012623503D

 34 33  0  0  1  0  0  0  0  0999 V2000
   20.5260   68.9110    6.1460 *   0  0  0  0  0  0  0  0  0  0  0  0
   20.3740   67.8550    7.0100 C   0  0  0  0  0  1  0  0  0  0  0  0
   20.8310   68.8510    4.6450 C   0  0  0  0  0  3  0  0  0  0  0  0
   19.7910   68.9110    3.7490 N   0  0  0  0  0  0  0  0  0  0  0  0
   22.0010   68.9020    4.2650 O   0  0  0  0  0  0  0  0  0  0  0  0
   18.8480   68.9800    4.1010 H   0  0  0  0  0  0  0  0  0  0  0  0
   20.0050   69.3030    2.3420 C   0  0  0  0  0  2  0  0  0  0  0  0
   20.6740   70.6720    2.0270 C   0  0  0  0  0  2  0  0  0  0  0  0
   21.9590   70.6500    1.2830 N   0  0  0  0  0  0  0  0  0  0  0  0
   23.0260   71.2700    2.0850 C   0  0  0  0  0  1  0  0  0  0  0  0
   22.3520   69.2850    0.9520 C   0  0  0  0  0  1  0  0  0  0  0  0
   20.0250   67.9590    8.5110 C   0  0  2  0  0  3  0  0  0  0  0  0
   18.8780   68.6630    8.7270 C   0  0  1  0  0  3  0  0  0  0  0  0
   20.9210   68.6950    9.4670 C   0  0  0  0  0  0  0  0  0  0  0  0
   19.2960   70.1010    8.7350 C   0  0  1  0  0  3  0  0  0  0  0  0
   20.6190   70.0560    9.3930 C   0  0  0  0  0  0  0  0  0  0  0  0
   21.7700   68.2800   10.4780 C   0  0  0  0  0  3  0  0  0  0  0  0
   19.2700   70.6790    7.5000 C   0  0  0  0  0  1  0  0  0  0  0  0
   21.4630   71.0280    9.9110 C   0  0  0  0  0  3  0  0  0  0  0  0
   22.5290   69.2490   11.1580 C   0  0  0  0  0  3  0  0  0  0  0  0
   22.4610   70.6000   10.7850 C   0  0  0  0  0  3  0  0  0  0  0  0
   17.5650   68.0760    8.3600 C   0  0  0  0  0  0  0  0  0  0  0  0
   17.2920   66.9110    8.6400 O   0  0  0  0  0  0  0  0  0  0  0  0
   16.6640   68.9430    7.7990 N   0  0  0  0  0  0  0  0  0  0  0  0
   16.9120   69.9130    7.6600 H   0  0  0  0  0  0  0  0  0  0  0  0
   15.3030   68.5280    7.5000 C   0  0  0  0  0  2  0  0  0  0  0  0
   15.1800   67.7960    6.1860 C   0  0  0  0  0  0  0  0  0  0  0  0
   16.0550   68.0260    5.1030 C   0  0  0  0  0  3  0  0  0  0  0  0
   14.2210   66.7830    6.0690 C   0  0  0  0  0  0  0  0  0  0  0  0
   15.9240   67.2840    3.9240 C   0  0  0  0  0  3  0  0  0  0  0  0
   14.0950   66.0360    4.9000 C   0  0  0  0  0  3  0  0  0  0  0  0
   14.9440   66.2910    3.8250 C   0  0  0  0  0  3  0  0  0  0  0  0
   13.3970   66.5200    7.0940 F   0  0  0  0  0  0  0  0  0  0  0  0
   20.4390   70.3950    6.5670 *   0  0  0  0  0  0  0  0  0  0  0  0
  4  6  1  0  0  0  0
  4  3  1  0  0  0  0
  5  3  2  0  0  0  0
  7  4  1  0  0  0  0
  8  7  1  0  0  0  0
  9  8  1  0  0  0  0
  9 10  1  0  0  0  0
 11  9  1  0  0  0  0
 12  2  1  6  0  0  0
 12 13  1  0  0  0  0
 12 14  1  0  0  0  0
 13 22  1  6  0  0  0
 13 15  1  0  0  0  0
 14 17  1  0  0  0  0
 15 18  1  6  0  0  0
 15 16  1  0  0  0  0
 16 14  2  0  0  0  0
 16 19  1  0  0  0  0
 17 20  2  0  0  0  0
 19 21  2  0  0  0  0
 21 20  1  0  0  0  0
 22 23  2  0  0  0  0
 24 22  1  0  0  0  0
 25 24  1  0  0  0  0
 26 24  1  0  0  0  0
 27 26  1  0  0  0  0
 28 27  2  0  0  0  0
 29 27  1  0  0  0  0
 29 33  1  0  0  0  0
 30 28  1  0  0  0  0
 31 29  2  0  0  0  0
 32 30  2  0  0  0  0
 32 31  1  0  0  0  0
M  END
>  <MODEL>
8

>  <REMARK>
 VINA RESULT:    -6.735      2.385      5.574
 INTER + INTRA:         -10.465
 INTER:                 -10.360
 INTRA:                  -0.105
 UNBOUND:                -0.187
 SMILES CN(C)CCNC(=O)C1=CC2=C(C(=O)NCc3ccccc3F)C(=CC1)c1ccccc12
 SMILES IDX 9 1 10 2 7 4 6 5 8 6 5 8 4 9 2 10 1 11 3 12 11 13 12 14
 SMILES IDX 32 15 24 16 27 17 31 18 25 19 28 20 30 21 29 22 13 23 14 24
 SMILES IDX 15 25 16 27 17 28 18 29 22 30 19 31 21 32 20 33 23 34 26 35
 H PARENT 6 7 15 26
 Flexibility Score:   96.900

>  <TORSDO>
F 7

$$$$
research/ai4chem/closed_loop/ipf_cycle1/docking_1vjy/cand_0018_dock.pdbqt
 OpenBabel03012623503D

 34 33  0  0  1  0  0  0  0  0999 V2000
   17.0510   69.1510    6.6200 *   0  0  0  0  0  0  0  0  0  0  0  0
   15.8220   69.0520    6.0180 C   0  0  0  0  0  1  0  0  0  0  0  0
   17.3640   69.7020    8.0160 C   0  0  0  0  0  3  0  0  0  0  0  0
   17.3360   68.8480    9.0930 N   0  0  0  0  0  0  0  0  0  0  0  0
   17.7800   70.8560    8.1300 O   0  0  0  0  0  0  0  0  0  0  0  0
   17.0970   67.8810    8.9410 H   0  0  0  0  0  0  0  0  0  0  0  0
   18.0360   69.1700   10.3520 C   0  0  0  0  0  2  0  0  0  0  0  0
   19.4380   68.5510   10.6230 C   0  0  0  0  0  2  0  0  0  0  0  0
   20.5570   68.9840    9.7490 N   0  0  0  0  0  0  0  0  0  0  0  0
   20.9350   70.3740   10.0520 C   0  0  0  0  0  1  0  0  0  0  0  0
   21.7250   68.1280    9.9280 C   0  0  0  0  0  1  0  0  0  0  0  0
   15.5460   68.4510    4.6220 C   0  0  2  0  0  3  0  0  0  0  0  0
   16.0160   67.1760    4.5070 C   0  0  1  0  0  3  0  0  0  0  0  0
   16.1740   69.0330    3.3880 C   0  0  0  0  0  0  0  0  0  0  0  0
   17.4620   67.3230    4.1460 C   0  0  1  0  0  3  0  0  0  0  0  0
   17.4620   68.5080    3.2610 C   0  0  0  0  0  0  0  0  0  0  0  0
   15.6740   69.7670    2.3260 C   0  0  0  0  0  3  0  0  0  0  0  0
   18.2860   67.3950    5.2300 C   0  0  0  0  0  1  0  0  0  0  0  0
   18.4080   69.0680    2.4140 C   0  0  0  0  0  3  0  0  0  0  0  0
   16.5690   70.2180    1.3410 C   0  0  0  0  0  3  0  0  0  0  0  0
   17.9450   69.9710    1.4580 C   0  0  0  0  0  3  0  0  0  0  0  0
   15.3430   66.0680    5.2280 C   0  0  0  0  0  0  0  0  0  0  0  0
   15.0980   66.1500    6.4290 O   0  0  0  0  0  0  0  0  0  0  0  0
   14.9280   65.0200    4.4490 N   0  0  0  0  0  0  0  0  0  0  0  0
   15.0860   65.0360    3.4500 H   0  0  0  0  0  0  0  0  0  0  0  0
   14.1530   63.9240    5.0080 C   0  0  0  0  0  2  0  0  0  0  0  0
   12.6630   64.1470    4.9260 C   0  0  0  0  0  0  0  0  0  0  0  0
   11.9090   64.6520    6.0060 C   0  0  0  0  0  3  0  0  0  0  0  0
   12.0180   63.9360    3.7010 C   0  0  0  0  0  0  0  0  0  0  0  0
   10.5380   64.8850    5.8590 C   0  0  0  0  0  3  0  0  0  0  0  0
   10.6540   64.1750    3.5490 C   0  0  0  0  0  3  0  0  0  0  0  0
    9.9130   64.6450    4.6300 C   0  0  0  0  0  3  0  0  0  0  0  0
   12.7160   63.4870    2.6460 F   0  0  0  0  0  0  0  0  0  0  0  0
   18.3810   68.7320    5.9520 *   0  0  0  0  0  0  0  0  0  0  0  0
  3  5  2  0  0  0  0
  3  4  1  0  0  0  0
  4  7  1  0  0  0  0
  6  4  1  0  0  0  0
  7  8  1  0  0  0  0
  9 11  1  0  0  0  0
  9 10  1  0  0  0  0
  9  8  1  0  0  0  0
 12  2  1  1  0  0  0
 13 12  1  0  0  0  0
 13 22  1  1  0  0  0
 14 12  1  0  0  0  0
 15 13  1  0  0  0  0
 15 18  1  1  0  0  0
 16 14  1  0  0  0  0
 16 15  1  0  0  0  0
 17 14  2  0  0  0  0
 19 16  2  0  0  0  0
 20 21  2  0  0  0  0
 20 17  1  0  0  0  0
 21 19  1  0  0  0  0
 22 23  2  0  0  0  0
 24 26  1  0  0  0  0
 24 22  1  0  0  0  0
 25 24  1  0  0  0  0
 27 26  1  0  0  0  0
 27 28  1  0  0  0  0
 29 27  2  0  0  0  0
 30 28  2  0  0  0  0
 31 29  1  0  0  0  0
 31 32  2  0  0  0  0
 32 30  1  0  0  0  0
 33 29  1  0  0  0  0
M  END
>  <MODEL>
9

>  <REMARK>
 VINA RESULT:    -6.548      2.247      2.992
 INTER + INTRA:         -10.181
 INTER:                  -9.912
 INTRA:                  -0.269
 UNBOUND:                -0.187
 SMILES CN(C)CCNC(=O)C1=CC2=C(C(=O)NCc3ccccc3F)C(=CC1)c1ccccc12
 SMILES IDX 9 1 10 2 7 4 6 5 8 6 5 8 4 9 2 10 1 11 3 12 11 13 12 14
 SMILES IDX 32 15 24 16 27 17 31 18 25 19 28 20 30 21 29 22 13 23 14 24
 SMILES IDX 15 25 16 27 17 28 18 29 22 30 19 31 21 32 20 33 23 34 26 35
 H PARENT 6 7 15 26
 Flexibility Score:   96.900

>  <TORSDO>
F 7

$$$$
research/ai4chem/closed_loop/ipf_cycle1/docking_1vjy/cand_0018_dock.pdbqt
 OpenBabel03012623503D

 34 33  0  0  1  0  0  0  0  0999 V2000
   19.4570   69.4890    5.8360 *   0  0  0  0  0  0  0  0  0  0  0  0
   19.3300   68.1250    5.9250 C   0  0  0  0  0  1  0  0  0  0  0  0
   20.3730   70.2810    4.8960 C   0  0  0  0  0  3  0  0  0  0  0  0
   21.7100   70.3840    5.1950 N   0  0  0  0  0  0  0  0  0  0  0  0
   19.9300   70.6820    3.8190 O   0  0  0  0  0  0  0  0  0  0  0  0
   22.0570   69.9450    6.0350 H   0  0  0  0  0  0  0  0  0  0  0  0
   22.7090   70.7230    4.1620 C   0  0  0  0  0  2  0  0  0  0  0  0
   23.1300   69.6410    3.1270 C   0  0  0  0  0  2  0  0  0  0  0  0
   23.1740   70.0410    1.6980 N   0  0  0  0  0  0  0  0  0  0  0  0
   22.0770   69.4020    0.9540 C   0  0  0  0  0  1  0  0  0  0  0  0
   23.0620   71.4880    1.5540 C   0  0  0  0  0  1  0  0  0  0  0  0
   18.3620   67.3660    6.8590 C   0  0  2  0  0  3  0  0  0  0  0  0
   17.0670   67.7560    6.6880 C   0  0  1  0  0  3  0  0  0  0  0  0
   18.4450   67.5190    8.3520 C   0  0  0  0  0  0  0  0  0  0  0  0
   16.9100   68.9800    7.5360 C   0  0  1  0  0  3  0  0  0  0  0  0
   17.7490   68.6750    8.7140 C   0  0  0  0  0  0  0  0  0  0  0  0
   18.8670   66.6800    9.3680 C   0  0  0  0  0  3  0  0  0  0  0  0
   17.2130   70.1360    6.8790 C   0  0  0  0  0  1  0  0  0  0  0  0
   17.8920   69.2610    9.9630 C   0  0  0  0  0  3  0  0  0  0  0  0
   18.8720   67.1690   10.6850 C   0  0  0  0  0  3  0  0  0  0  0  0
   18.5020   68.4960   10.9560 C   0  0  0  0  0  3  0  0  0  0  0  0
   16.3340   67.3750    5.4550 C   0  0  0  0  0  0  0  0  0  0  0  0
   16.7480   67.7010    4.3450 O   0  0  0  0  0  0  0  0  0  0  0  0
   15.2480   66.5600    5.6390 N   0  0  0  0  0  0  0  0  0  0  0  0
   14.9940   66.2560    6.5700 H   0  0  0  0  0  0  0  0  0  0  0  0
   14.5110   66.0170    4.5100 C   0  0  0  0  0  2  0  0  0  0  0  0
   13.2210   65.3450    4.9100 C   0  0  0  0  0  0  0  0  0  0  0  0
   12.4520   65.7700    6.0150 C   0  0  0  0  0  3  0  0  0  0  0  0
   12.7170   64.3200    4.1000 C   0  0  0  0  0  0  0  0  0  0  0  0
   11.2390   65.1410    6.3110 C   0  0  0  0  0  3  0  0  0  0  0  0
   11.5050   63.6970    4.3870 C   0  0  0  0  0  3  0  0  0  0  0  0
   10.7690   64.1050    5.4970 C   0  0  0  0  0  3  0  0  0  0  0  0
   13.4100   63.9170    3.0240 F   0  0  0  0  0  0  0  0  0  0  0  0
   18.6860   70.4910    6.7250 *   0  0  0  0  0  0  0  0  0  0  0  0
  3  4  1  0  0  0  0
  4  6  1  0  0  0  0
  5  3  2  0  0  0  0
  7  4  1  0  0  0  0
  8  7  1  0  0  0  0
  9  8  1  0  0  0  0
 10  9  1  0  0  0  0
 11  9  1  0  0  0  0
 12  2  1  6  0  0  0
 12 14  1  0  0  0  0
 13 22  1  6  0  0  0
 13 12  1  0  0  0  0
 13 15  1  0  0  0  0
 14 16  2  0  0  0  0
 14 17  1  0  0  0  0
 15 18  1  6  0  0  0
 15 16  1  0  0  0  0
 16 19  1  0  0  0  0
 17 20  2  0  0  0  0
 19 21  2  0  0  0  0
 20 21  1  0  0  0  0
 22 24  1  0  0  0  0
 23 22  2  0  0  0  0
 24 25  1  0  0  0  0
 26 27  1  0  0  0  0
 26 24  1  0  0  0  0
 27 28  1  0  0  0  0
 28 30  2  0  0  0  0
 29 31  1  0  0  0  0
 29 27  2  0  0  0  0
 31 32  2  0  0  0  0
 32 30  1  0  0  0  0
 33 29  1  0  0  0  0
M  END
>  <MODEL>
10

>  <REMARK>
 VINA RESULT:    -6.530      2.775      5.291
 INTER + INTRA:         -10.152
 INTER:                 -10.036
 INTRA:                  -0.117
 UNBOUND:                -0.187
 SMILES CN(C)CCNC(=O)C1=CC2=C(C(=O)NCc3ccccc3F)C(=CC1)c1ccccc12
 SMILES IDX 9 1 10 2 7 4 6 5 8 6 5 8 4 9 2 10 1 11 3 12 11 13 12 14
 SMILES IDX 32 15 24 16 27 17 31 18 25 19 28 20 30 21 29 22 13 23 14 24
 SMILES IDX 15 25 16 27 17 28 18 29 22 30 19 31 21 32 20 33 23 34 26 35
 H PARENT 6 7 15 26
 Flexibility Score:   96.900

>  <TORSDO>
F 7

$$$$
research/ai4chem/closed_loop/ipf_cycle1/docking_1vjy/cand_0018_dock.pdbqt
 OpenBabel03012623503D

 34 33  0  0  1  0  0  0  0  0999 V2000
   18.0470   68.0680    8.3540 *   0  0  0  0  0  0  0  0  0  0  0  0
   18.2770   69.4210    8.3550 C   0  0  0  0  0  1  0  0  0  0  0  0
   16.6920   67.3510    8.3210 C   0  0  0  0  0  3  0  0  0  0  0  0
   15.6070   67.9980    7.7790 N   0  0  0  0  0  0  0  0  0  0  0  0
   16.6300   66.1630    8.6390 O   0  0  0  0  0  0  0  0  0  0  0  0
   15.7250   68.9350    7.4260 H   0  0  0  0  0  0  0  0  0  0  0  0
   14.4210   67.2560    7.3080 C   0  0  0  0  0  2  0  0  0  0  0  0
   13.8850   67.5120    5.8700 C   0  0  0  0  0  2  0  0  0  0  0  0
   14.6690   66.9540    4.7390 N   0  0  0  0  0  0  0  0  0  0  0  0
   15.9420   67.6760    4.5910 C   0  0  0  0  0  1  0  0  0  0  0  0
   14.9510   65.5370    4.9440 C   0  0  0  0  0  1  0  0  0  0  0  0
   19.6630   70.1020    8.3470 C   0  0  2  0  0  3  0  0  0  0  0  0
   20.4390   69.6800    7.3090 C   0  0  1  0  0  3  0  0  0  0  0  0
   20.6440   69.8800    9.4630 C   0  0  0  0  0  0  0  0  0  0  0  0
   21.0770   68.4120    7.7860 C   0  0  1  0  0  3  0  0  0  0  0  0
   21.3270   68.6870    9.2160 C   0  0  0  0  0  0  0  0  0  0  0  0
   21.1060   70.6830   10.4910 C   0  0  0  0  0  3  0  0  0  0  0  0
   20.3350   67.3000    7.5180 C   0  0  0  0  0  1  0  0  0  0  0  0
   22.0690   68.0460   10.1980 C   0  0  0  0  0  3  0  0  0  0  0  0
   22.0000   70.1310   11.4240 C   0  0  0  0  0  3  0  0  0  0  0  0
   22.3780   68.7820   11.3410 C   0  0  0  0  0  3  0  0  0  0  0  0
   20.1150   70.0970    5.9220 C   0  0  0  0  0  0  0  0  0  0  0  0
   20.2970   71.2530    5.5480 O   0  0  0  0  0  0  0  0  0  0  0  0
   19.7110   69.0930    5.0800 N   0  0  0  0  0  0  0  0  0  0  0  0
   19.6510   68.1410    5.4180 H   0  0  0  0  0  0  0  0  0  0  0  0
   19.4750   69.3410    3.6670 C   0  0  0  0  0  2  0  0  0  0  0  0
   20.7340   69.6690    2.9040 C   0  0  0  0  0  0  0  0  0  0  0  0
   22.0200   69.5540    3.4720 C   0  0  0  0  0  3  0  0  0  0  0  0
   20.6290   70.0100    1.5500 C   0  0  0  0  0  0  0  0  0  0  0  0
   23.1560   69.8250    2.7020 C   0  0  0  0  0  3  0  0  0  0  0  0
   21.7590   70.2720    0.7780 C   0  0  0  0  0  3  0  0  0  0  0  0
   23.0230   70.1850    1.3570 C   0  0  0  0  0  3  0  0  0  0  0  0
   19.4200   70.0960    0.9730 F   0  0  0  0  0  0  0  0  0  0  0  0
   19.1620   67.0000    8.4420 *   0  0  0  0  0  0  0  0  0  0  0  0
  3  5  2  0  0  0  0
  4  3  1  0  0  0  0
  6  4  1  0  0  0  0
  7  4  1  0  0  0  0
  8  7  1  0  0  0  0
  9 11  1  0  0  0  0
  9  8  1  0  0  0  0
 10  9  1  0  0  0  0
 12  2  1  1  0  0  0
 12 14  1  0  0  0  0
 13 22  1  6  0  0  0
 13 15  1  0  0  0  0
 13 12  1  0  0  0  0
 14 17  1  0  0  0  0
 15 18  1  1  0  0  0
 15 16  1  0  0  0  0
 16 14  2  0  0  0  0
 16 19  1  0  0  0  0
 17 20  2  0  0  0  0
 19 21  2  0  0  0  0
 21 20  1  0  0  0  0
 23 22  2  0  0  0  0
 24 25  1  0  0  0  0
 24 22  1  0  0  0  0
 26 24  1  0  0  0  0
 27 28  1  0  0  0  0
 27 26  1  0  0  0  0
 29 27  2  0  0  0  0
 30 28  2  0  0  0  0
 31 32  2  0  0  0  0
 31 29  1  0  0  0  0
 32 30  1  0  0  0  0
 33 29  1  0  0  0  0
M  END
>  <MODEL>
11

>  <REMARK>
 VINA RESULT:    -6.385      2.909      7.331
 INTER + INTRA:          -9.932
 INTER:                 -10.822
 INTRA:                   0.890
 UNBOUND:                -0.187
 SMILES CN(C)CCNC(=O)C1=CC2=C(C(=O)NCc3ccccc3F)C(=CC1)c1ccccc12
 SMILES IDX 9 1 10 2 7 4 6 5 8 6 5 8 4 9 2 10 1 11 3 12 11 13 12 14
 SMILES IDX 32 15 24 16 27 17 31 18 25 19 28 20 30 21 29 22 13 23 14 24
 SMILES IDX 15 25 16 27 17 28 18 29 22 30 19 31 21 32 20 33 23 34 26 35
 H PARENT 6 7 15 26
 Flexibility Score:   96.900

>  <TORSDO>
F 7

$$$$
research/ai4chem/closed_loop/ipf_cycle1/docking_1vjy/cand_0018_dock.pdbqt
 OpenBabel03012623503D

 34 33  0  0  1  0  0  0  0  0999 V2000
   15.0650   67.9080    4.0580 *   0  0  0  0  0  0  0  0  0  0  0  0
   14.4160   68.3150    5.1970 C   0  0  0  0  0  1  0  0  0  0  0  0
   15.6150   68.7910    2.9320 C   0  0  0  0  0  3  0  0  0  0  0  0
   16.9160   69.2270    2.9990 N   0  0  0  0  0  0  0  0  0  0  0  0
   14.9360   68.9680    1.9190 O   0  0  0  0  0  0  0  0  0  0  0  0
   17.4760   68.9670    3.7960 H   0  0  0  0  0  0  0  0  0  0  0  0
   17.6420   69.6820    1.7960 C   0  0  0  0  0  2  0  0  0  0  0  0
   19.1090   69.2130    1.5720 C   0  0  0  0  0  2  0  0  0  0  0  0
   20.1850   69.9920    2.2340 N   0  0  0  0  0  0  0  0  0  0  0  0
   20.4580   69.4520    3.5750 C   0  0  0  0  0  1  0  0  0  0  0  0
   21.4160   69.9570    1.4520 C   0  0  0  0  0  1  0  0  0  0  0  0
   13.9150   67.3920    6.3300 C   0  0  2  0  0  3  0  0  0  0  0  0
   14.9100   66.6120    6.8390 C   0  0  1  0  0  3  0  0  0  0  0  0
   12.9020   66.3150    6.0620 C   0  0  0  0  0  0  0  0  0  0  0  0
   14.9870   65.4290    5.9240 C   0  0  1  0  0  3  0  0  0  0  0  0
   13.5720   65.1940    5.5670 C   0  0  0  0  0  0  0  0  0  0  0  0
   11.5660   66.1690    6.3920 C   0  0  0  0  0  3  0  0  0  0  0  0
   15.8390   65.6110    4.8740 C   0  0  0  0  0  1  0  0  0  0  0  0
   12.9040   64.1530    4.9380 C   0  0  0  0  0  3  0  0  0  0  0  0
   10.8770   65.0380    5.9210 C   0  0  0  0  0  3  0  0  0  0  0  0
   11.5200   64.1030    5.0950 C   0  0  0  0  0  3  0  0  0  0  0  0
   15.9780   67.2190    7.6700 C   0  0  0  0  0  0  0  0  0  0  0  0
   16.1050   68.4390    7.7480 O   0  0  0  0  0  0  0  0  0  0  0  0
   16.7230   66.3400    8.4130 N   0  0  0  0  0  0  0  0  0  0  0  0
   16.5280   65.3480    8.3720 H   0  0  0  0  0  0  0  0  0  0  0  0
   17.7230   66.8080    9.3580 C   0  0  0  0  0  2  0  0  0  0  0  0
   18.8170   67.6220    8.7120 C   0  0  0  0  0  0  0  0  0  0  0  0
   19.3620   67.2980    7.4510 C   0  0  0  0  0  3  0  0  0  0  0  0
   19.2420   68.7980    9.3420 C   0  0  0  0  0  0  0  0  0  0  0  0
   20.3410   68.1150    6.8770 C   0  0  0  0  0  3  0  0  0  0  0  0
   20.2100   69.6190    8.7680 C   0  0  0  0  0  3  0  0  0  0  0  0
   20.7640   69.2730    7.5370 C   0  0  0  0  0  3  0  0  0  0  0  0
   18.7180   69.1490   10.5260 F   0  0  0  0  0  0  0  0  0  0  0  0
   15.3330   66.4300    3.6940 *   0  0  0  0  0  0  0  0  0  0  0  0
  3  4  1  0  0  0  0
  4  6  1  0  0  0  0
  5  3  2  0  0  0  0
  7  4  1  0  0  0  0
  8  7  1  0  0  0  0
  8  9  1  0  0  0  0
  9 10  1  0  0  0  0
 11  9  1  0  0  0  0
 12  2  1  6  0  0  0
 12 13  1  0  0  0  0
 13 22  1  6  0  0  0
 14 12  1  0  0  0  0
 14 17  1  0  0  0  0
 15 18  1  6  0  0  0
 15 13  1  0  0  0  0
 16 15  1  0  0  0  0
 16 14  2  0  0  0  0
 19 21  2  0  0  0  0
 19 16  1  0  0  0  0
 20 17  2  0  0  0  0
 21 20  1  0  0  0  0
 22 23  2  0  0  0  0
 22 24  1  0  0  0  0
 24 26  1  0  0  0  0
 25 24  1  0  0  0  0
 27 29  1  0  0  0  0
 27 26  1  0  0  0  0
 28 27  2  0  0  0  0
 29 33  1  0  0  0  0
 30 28  1  0  0  0  0
 30 32  2  0  0  0  0
 31 29  2  0  0  0  0
 32 31  1  0  0  0  0
M  END
>  <MODEL>
12

>  <REMARK>
 VINA RESULT:    -6.023      3.297      7.768
 INTER + INTRA:          -9.379
 INTER:                  -9.446
 INTRA:                   0.067
 UNBOUND:                -0.187
 SMILES CN(C)CCNC(=O)C1=CC2=C(C(=O)NCc3ccccc3F)C(=CC1)c1ccccc12
 SMILES IDX 9 1 10 2 7 4 6 5 8 6 5 8 4 9 2 10 1 11 3 12 11 13 12 14
 SMILES IDX 32 15 24 16 27 17 31 18 25 19 28 20 30 21 29 22 13 23 14 24
 SMILES IDX 15 25 16 27 17 28 18 29 22 30 19 31 21 32 20 33 23 34 26 35
 H PARENT 6 7 15 26
 Flexibility Score:   96.900

>  <TORSDO>
F 7

$$$$
research/ai4chem/closed_loop/ipf_cycle1/docking_1vjy/cand_0018_dock.pdbqt
 OpenBabel03012623503D

 34 33  0  0  1  0  0  0  0  0999 V2000
   20.4070   69.3810    6.2240 *   0  0  0  0  0  0  0  0  0  0  0  0
   20.1600   68.0940    6.6330 C   0  0  0  0  0  1  0  0  0  0  0  0
   21.0680   69.8340    4.9170 C   0  0  0  0  0  3  0  0  0  0  0  0
   22.4350   69.9630    4.8690 N   0  0  0  0  0  0  0  0  0  0  0  0
   20.3840   69.9290    3.8970 O   0  0  0  0  0  0  0  0  0  0  0  0
   22.9720   69.7690    5.7000 H   0  0  0  0  0  0  0  0  0  0  0  0
   23.1680   69.9530    3.5870 C   0  0  0  0  0  2  0  0  0  0  0  0
   22.8640   71.0540    2.5300 C   0  0  0  0  0  2  0  0  0  0  0  0
   22.6560   70.6150    1.1270 N   0  0  0  0  0  0  0  0  0  0  0  0
   23.1370   69.2370    0.9440 C   0  0  0  0  0  1  0  0  0  0  0  0
   21.2450   70.6740    0.7620 C   0  0  0  0  0  1  0  0  0  0  0  0
   19.4530   67.6820    7.9420 C   0  0  2  0  0  3  0  0  0  0  0  0
   18.2180   68.2480    8.0620 C   0  0  1  0  0  3  0  0  0  0  0  0
   20.0090   68.0740    9.2820 C   0  0  0  0  0  0  0  0  0  0  0  0
   18.4650   69.6090    8.6360 C   0  0  1  0  0  3  0  0  0  0  0  0
   19.5880   69.3750    9.5680 C   0  0  0  0  0  0  0  0  0  0  0  0
   20.6310   67.3640   10.2940 C   0  0  0  0  0  3  0  0  0  0  0  0
   18.6730   70.5660    7.6880 C   0  0  0  0  0  1  0  0  0  0  0  0
   20.1740   70.1360   10.5700 C   0  0  0  0  0  3  0  0  0  0  0  0
   21.0950   68.0660   11.4200 C   0  0  0  0  0  3  0  0  0  0  0  0
   20.9740   69.4620   11.4910 C   0  0  0  0  0  3  0  0  0  0  0  0
   17.1030   67.7880    7.1980 C   0  0  0  0  0  0  0  0  0  0  0  0
   16.1520   67.1680    7.6670 O   0  0  0  0  0  0  0  0  0  0  0  0
   17.1610   68.1940    5.8900 N   0  0  0  0  0  0  0  0  0  0  0  0
   17.9290   68.7700    5.5710 H   0  0  0  0  0  0  0  0  0  0  0  0
   16.0760   67.9140    4.9640 C   0  0  0  0  0  2  0  0  0  0  0  0
   16.3770   68.3440    3.5500 C   0  0  0  0  0  0  0  0  0  0  0  0
   15.4200   68.9780    2.7280 C   0  0  0  0  0  3  0  0  0  0  0  0
   17.6820   68.1960    3.0640 C   0  0  0  0  0  0  0  0  0  0  0  0
   15.7680   69.4010    1.4410 C   0  0  0  0  0  3  0  0  0  0  0  0
   18.0330   68.6230    1.7860 C   0  0  0  0  0  3  0  0  0  0  0  0
   17.0730   69.2210    0.9720 C   0  0  0  0  0  3  0  0  0  0  0  0
   18.6210   67.6260    3.8350 F   0  0  0  0  0  0  0  0  0  0  0  0
   20.0560   70.6370    7.0530 *   0  0  0  0  0  0  0  0  0  0  0  0
  4  3  1  0  0  0  0
  4  6  1  0  0  0  0
  5  3  2  0  0  0  0
  7  4  1  0  0  0  0
  8  7  1  0  0  0  0
  9  8  1  0  0  0  0
 10  9  1  0  0  0  0
 11  9  1  0  0  0  0
 12  2  1  6  0  0  0
 12 13  1  0  0  0  0
 12 14  1  0  0  0  0
 13 22  1  6  0  0  0
 13 15  1  0  0  0  0
 14 16  2  0  0  0  0
 14 17  1  0  0  0  0
 15 18  1  6  0  0  0
 15 16  1  0  0  0  0
 16 19  1  0  0  0  0
 17 20  2  0  0  0  0
 19 21  2  0  0  0  0
 20 21  1  0  0  0  0
 22 23  2  0  0  0  0
 24 22  1  0  0  0  0
 25 24  1  0  0  0  0
 26 24  1  0  0  0  0
 27 26  1  0  0  0  0
 28 27  2  0  0  0  0
 29 27  1  0  0  0  0
 29 33  1  0  0  0  0
 30 28  1  0  0  0  0
 31 29  2  0  0  0  0
 32 30  2  0  0  0  0
 32 31  1  0  0  0  0
M  END
>  <MODEL>
13

>  <REMARK>
 VINA RESULT:    -6.008      3.186      6.107
 INTER + INTRA:          -9.356
 INTER:                  -9.784
 INTRA:                   0.427
 UNBOUND:                -0.187
 SMILES CN(C)CCNC(=O)C1=CC2=C(C(=O)NCc3ccccc3F)C(=CC1)c1ccccc12
 SMILES IDX 9 1 10 2 7 4 6 5 8 6 5 8 4 9 2 10 1 11 3 12 11 13 12 14
 SMILES IDX 32 15 24 16 27 17 31 18 25 19 28 20 30 21 29 22 13 23 14 24
 SMILES IDX 15 25 16 27 17 28 18 29 22 30 19 31 21 32 20 33 23 34 26 35
 H PARENT 6 7 15 26
 Flexibility Score:   96.900

>  <TORSDO>
F 7

$$$$
research/ai4chem/closed_loop/ipf_cycle1/docking_1vjy/cand_0018_dock.pdbqt
 OpenBabel03012623503D

 34 33  0  0  1  0  0  0  0  0999 V2000
   19.3250   69.1670    5.8640 *   0  0  0  0  0  0  0  0  0  0  0  0
   18.8360   67.9030    6.0810 C   0  0  0  0  0  1  0  0  0  0  0  0
   20.2730   69.6220    4.7480 C   0  0  0  0  0  3  0  0  0  0  0  0
   20.4320   68.8240    3.6400 N   0  0  0  0  0  0  0  0  0  0  0  0
   20.7570   70.7530    4.7920 O   0  0  0  0  0  0  0  0  0  0  0  0
   19.9300   67.9510    3.5930 H   0  0  0  0  0  0  0  0  0  0  0  0
   20.9470   69.3660    2.3670 C   0  0  0  0  0  2  0  0  0  0  0  0
   20.0430   70.3080    1.5210 C   0  0  0  0  0  2  0  0  0  0  0  0
   18.6490   69.8660    1.2600 N   0  0  0  0  0  0  0  0  0  0  0  0
   18.5070   68.4290    1.5390 C   0  0  0  0  0  1  0  0  0  0  0  0
   17.7010   70.6030    2.0870 C   0  0  0  0  0  1  0  0  0  0  0  0
   17.8470   67.4960    7.1950 C   0  0  2  0  0  3  0  0  0  0  0  0
   16.7070   68.2430    7.1720 C   0  0  1  0  0  3  0  0  0  0  0  0
   18.1970   67.6700    8.6460 C   0  0  0  0  0  0  0  0  0  0  0  0
   17.0370   69.4880    7.9350 C   0  0  1  0  0  3  0  0  0  0  0  0
   17.9240   68.9910    9.0080 C   0  0  0  0  0  0  0  0  0  0  0  0
   18.5120   66.7800    9.6580 C   0  0  0  0  0  3  0  0  0  0  0  0
   17.5530   70.4800    7.1540 C   0  0  0  0  0  1  0  0  0  0  0  0
   18.4180   69.5530   10.1770 C   0  0  0  0  0  3  0  0  0  0  0  0
   18.8580   67.2920   10.9200 C   0  0  0  0  0  3  0  0  0  0  0  0
   18.9280   68.6770   11.1340 C   0  0  0  0  0  3  0  0  0  0  0  0
   15.7160   68.0510    6.0840 C   0  0  0  0  0  0  0  0  0  0  0  0
   15.1730   69.0130    5.5440 O   0  0  0  0  0  0  0  0  0  0  0  0
   15.5390   66.7590    5.6630 N   0  0  0  0  0  0  0  0  0  0  0  0
   16.0680   66.0100    6.0900 H   0  0  0  0  0  0  0  0  0  0  0  0
   14.6870   66.4440    4.5290 C   0  0  0  0  0  2  0  0  0  0  0  0
   13.5190   65.5600    4.8900 C   0  0  0  0  0  0  0  0  0  0  0  0
   13.2640   64.3330    4.2400 C   0  0  0  0  0  3  0  0  0  0  0  0
   12.7120   65.9220    5.9760 C   0  0  0  0  0  0  0  0  0  0  0  0
   12.1940   63.5300    4.6490 C   0  0  0  0  0  3  0  0  0  0  0  0
   11.6520   65.1190    6.3910 C   0  0  0  0  0  3  0  0  0  0  0  0
   11.3900   63.9260    5.7230 C   0  0  0  0  0  3  0  0  0  0  0  0
   12.9510   67.0660    6.6340 F   0  0  0  0  0  0  0  0  0  0  0  0
   19.0250   70.3810    6.7740 *   0  0  0  0  0  0  0  0  0  0  0  0
  3  5  2  0  0  0  0
  4  3  1  0  0  0  0
  6  4  1  0  0  0  0
  7  4  1  0  0  0  0
  8  7  1  0  0  0  0
  9  8  1  0  0  0  0
  9 10  1  0  0  0  0
  9 11  1  0  0  0  0
 12  2  1  6  0  0  0
 12 14  1  0  0  0  0
 13 22  1  6  0  0  0
 13 12  1  0  0  0  0
 13 15  1  0  0  0  0
 14 16  2  0  0  0  0
 14 17  1  0  0  0  0
 15 18  1  6  0  0  0
 15 16  1  0  0  0  0
 16 19  1  0  0  0  0
 17 20  2  0  0  0  0
 19 21  2  0  0  0  0
 20 21  1  0  0  0  0
 23 22  2  0  0  0  0
 24 22  1  0  0  0  0
 24 25  1  0  0  0  0
 26 27  1  0  0  0  0
 26 24  1  0  0  0  0
 27 29  1  0  0  0  0
 28 30  1  0  0  0  0
 28 27  2  0  0  0  0
 29 31  2  0  0  0  0
 29 33  1  0  0  0  0
 30 32  2  0  0  0  0
 32 31  1  0  0  0  0
M  END
>  <MODEL>
14

>  <REMARK>
 VINA RESULT:    -5.871      2.625      5.525
 INTER + INTRA:          -9.148
 INTER:                 -10.010
 INTRA:                   0.862
 UNBOUND:                -0.187
 SMILES CN(C)CCNC(=O)C1=CC2=C(C(=O)NCc3ccccc3F)C(=CC1)c1ccccc12
 SMILES IDX 9 1 10 2 7 4 6 5 8 6 5 8 4 9 2 10 1 11 3 12 11 13 12 14
 SMILES IDX 32 15 24 16 27 17 31 18 25 19 28 20 30 21 29 22 13 23 14 24
 SMILES IDX 15 25 16 27 17 28 18 29 22 30 19 31 21 32 20 33 23 34 26 35
 H PARENT 6 7 15 26
 Flexibility Score:   96.900

>  <TORSDO>
F 7

$$$$
research/ai4chem/closed_loop/ipf_cycle1/docking_1vjy/cand_0018_dock.pdbqt
 OpenBabel03012623503D

 34 33  0  0  1  0  0  0  0  0999 V2000
   15.2560   66.3010    4.3040 *   0  0  0  0  0  0  0  0  0  0  0  0
   16.5410   66.3390    4.7860 C   0  0  0  0  0  1  0  0  0  0  0  0
   14.3010   65.1020    4.2880 C   0  0  0  0  0  3  0  0  0  0  0  0
   13.6200   64.7740    5.4360 N   0  0  0  0  0  0  0  0  0  0  0  0
   14.0450   64.5490    3.2170 O   0  0  0  0  0  0  0  0  0  0  0  0
   13.7750   65.3220    6.2670 H   0  0  0  0  0  0  0  0  0  0  0  0
   12.3910   63.9560    5.3980 C   0  0  0  0  0  2  0  0  0  0  0  0
   11.0100   64.6520    5.5620 C   0  0  0  0  0  2  0  0  0  0  0  0
   10.0280   64.4930    4.4600 N   0  0  0  0  0  0  0  0  0  0  0  0
    9.7200   65.7980    3.8550 C   0  0  0  0  0  1  0  0  0  0  0  0
   10.5410   63.6030    3.4240 C   0  0  0  0  0  1  0  0  0  0  0  0
   17.4560   67.5820    4.8210 C   0  0  2  0  0  3  0  0  0  0  0  0
   16.8810   68.6270    5.4820 C   0  0  1  0  0  3  0  0  0  0  0  0
   17.8390   68.3000    3.5580 C   0  0  0  0  0  0  0  0  0  0  0  0
   16.0160   69.3060    4.4650 C   0  0  1  0  0  3  0  0  0  0  0  0
   16.8070   69.1800    3.2220 C   0  0  0  0  0  0  0  0  0  0  0  0
   19.0210   68.3980    2.8460 C   0  0  0  0  0  3  0  0  0  0  0  0
   14.7490   68.8060    4.4130 C   0  0  0  0  0  1  0  0  0  0  0  0
   16.7090   69.7570    1.9640 C   0  0  0  0  0  3  0  0  0  0  0  0
   19.0220   69.1210    1.6400 C   0  0  0  0  0  3  0  0  0  0  0  0
   17.8370   69.6890    1.1470 C   0  0  0  0  0  3  0  0  0  0  0  0
   16.7240   68.5780    6.9560 C   0  0  0  0  0  0  0  0  0  0  0  0
   15.6090   68.5400    7.4730 O   0  0  0  0  0  0  0  0  0  0  0  0
   17.8860   68.4690    7.6740 N   0  0  0  0  0  0  0  0  0  0  0  0
   18.7760   68.4260    7.1950 H   0  0  0  0  0  0  0  0  0  0  0  0
   17.8690   68.2930    9.1170 C   0  0  0  0  0  2  0  0  0  0  0  0
   19.1010   68.8380    9.7960 C   0  0  0  0  0  0  0  0  0  0  0  0
   20.1030   69.5470    9.0990 C   0  0  0  0  0  3  0  0  0  0  0  0
   19.2100   68.7210   11.1870 C   0  0  0  0  0  0  0  0  0  0  0  0
   21.2010   70.0730    9.7880 C   0  0  0  0  0  3  0  0  0  0  0  0
   20.2980   69.2510   11.8770 C   0  0  0  0  0  3  0  0  0  0  0  0
   21.2970   69.9220   11.1750 C   0  0  0  0  0  3  0  0  0  0  0  0
   18.2560   68.0800   11.8800 F   0  0  0  0  0  0  0  0  0  0  0  0
   14.5380   67.5040    3.6510 *   0  0  0  0  0  0  0  0  0  0  0  0
  3  4  1  0  0  0  0
  4  6  1  0  0  0  0
  5  3  2  0  0  0  0
  7  4  1  0  0  0  0
  7  8  1  0  0  0  0
  9  8  1  0  0  0  0
 10  9  1  0  0  0  0
 11  9  1  0  0  0  0
 12  2  1  6  0  0  0
 12 13  1  0  0  0  0
 13 22  1  1  0  0  0
 14 12  1  0  0  0  0
 15 18  1  6  0  0  0
 15 13  1  0  0  0  0
 16 14  1  0  0  0  0
 16 15  1  0  0  0  0
 17 14  2  0  0  0  0
 19 16  2  0  0  0  0
 20 17  1  0  0  0  0
 21 20  2  0  0  0  0
 21 19  1  0  0  0  0
 22 23  2  0  0  0  0
 22 24  1  0  0  0  0
 24 26  1  0  0  0  0
 25 24  1  0  0  0  0
 26 27  1  0  0  0  0
 27 29  1  0  0  0  0
 28 30  1  0  0  0  0
 28 27  2  0  0  0  0
 29 31  2  0  0  0  0
 29 33  1  0  0  0  0
 30 32  2  0  0  0  0
 32 31  1  0  0  0  0
M  END
>  <MODEL>
15

>  <REMARK>
 VINA RESULT:    -5.501      3.253      8.437
 INTER + INTRA:          -8.583
 INTER:                  -8.416
 INTRA:                  -0.167
 UNBOUND:                -0.187
 SMILES CN(C)CCNC(=O)C1=CC2=C(C(=O)NCc3ccccc3F)C(=CC1)c1ccccc12
 SMILES IDX 9 1 10 2 7 4 6 5 8 6 5 8 4 9 2 10 1 11 3 12 11 13 12 14
 SMILES IDX 32 15 24 16 27 17 31 18 25 19 28 20 30 21 29 22 13 23 14 24
 SMILES IDX 15 25 16 27 17 28 18 29 22 30 19 31 21 32 20 33 23 34 26 35
 H PARENT 6 7 15 26
 Flexibility Score:   96.900

>  <TORSDO>
F 7

$$$$
