research/ai4chem/closed_loop/ipf_cycle1/docking_1vjy/cand_0003_dock.pdbqt
 OpenBabel03012623503D

 23 21  0  0  0  0  0  0  0  0999 V2000
   16.4370   67.4680    8.2250 N   0  0  0  0  0  0  0  0  0  0  0  0
   15.6970   66.8850    7.2360 C   0  0  0  0  0  3  0  0  0  0  0  0
   14.9150   67.5430    6.4610 N   0  0  0  0  0  2  0  0  0  0  0  0
   17.1370   66.8520    8.6280 H   0  0  0  0  0  0  0  0  0  0  0  0
   14.4910   66.8140    5.2680 *   0  0  0  0  0  0  0  0  0  0  0  0
   14.2250   65.4100    5.3880 O   0  0  0  0  0  1  0  0  0  0  0  0
   12.9320   64.9890    5.2180 C   0  0  0  0  0  0  0  0  0  0  0  0
   12.6890   64.2200    4.0650 C   0  0  0  0  0  0  0  0  0  0  0  0
   11.3920   63.7450    3.8130 C   0  0  0  0  0  3  0  0  0  0  0  0
   10.3520   64.0210    4.6990 C   0  0  0  0  0  3  0  0  0  0  0  0
   11.8850   65.2520    6.1060 C   0  0  0  0  0  3  0  0  0  0  0  0
   10.5990   64.7710    5.8450 C   0  0  0  0  0  3  0  0  0  0  0  0
   13.7970   63.9070    3.0990 C   0  0  0  0  0  1  0  0  0  0  0  0
   16.9860   68.7960    7.9690 C   0  0  0  0  0  2  0  0  0  0  0  0
   18.1950   68.6850    7.0580 C   0  0  0  0  0  0  0  0  0  0  0  0
   18.1210   68.6920    5.6430 C   0  0  0  0  0  0  0  0  0  0  0  0
   19.4530   68.5040    7.6730 C   0  0  0  0  0  3  0  0  0  0  0  0
   19.3120   68.5150    4.9050 C   0  0  0  0  0  3  0  0  0  0  0  0
   20.6150   68.3420    6.9200 C   0  0  0  0  0  3  0  0  0  0  0  0
   20.5430   68.3450    5.5340 C   0  0  0  0  0  3  0  0  0  0  0  0
   16.8440   68.8810    4.8380 C   0  0  0  0  0  2  0  0  0  0  0  0
   16.5550   67.7380    3.9750 N   0  0  0  0  0  1  0  0  0  0  0  0
   15.5860   66.9040    4.1710 *   0  0  0  0  0  0  0  0  0  0  0  0
  1  4  1  0  0  0  0
  2  1  1  0  0  0  0
  3  2  2  0  0  0  0
  7  6  1  0  0  0  0
  7 11  1  0  0  0  0
  8  7  2  0  0  0  0
  9  8  1  0  0  0  0
  9 10  2  0  0  0  0
 10 12  1  0  0  0  0
 12 11  2  0  0  0  0
 13  8  1  0  0  0  0
 14  1  1  0  0  0  0
 15 17  1  0  0  0  0
 15 14  1  0  0  0  0
 16 15  2  0  0  0  0
 18 20  2  0  0  0  0
 18 16  1  0  0  0  0
 19 17  2  0  0  0  0
 20 19  1  0  0  0  0
 21 16  1  0  0  0  0
 22 21  1  0  0  0  0
M  END
>  <MODEL>
1

>  <REMARK>
 VINA RESULT:    -7.851      0.000      0.000
 INTER + INTRA:          -9.981
 INTER:                 -11.064
 INTRA:                   1.083
 UNBOUND:                 1.083
 SMILES Cc1ccccc1O[C@@H]1/C=N\Cc2ccccc2CN/C=N/1
 SMILES IDX 20 1 21 2 22 3 9 5 8 7 7 8 2 9 3 10 4 11 6 12 5 13 1 14
 SMILES IDX 19 15 18 16 13 17 17 18 14 19 16 20 15 21 12 22 11 23 10 24
 H PARENT 20 4
 Flexibility Score:   51.900

>  <TORSDO>
F 2

$$$$
research/ai4chem/closed_loop/ipf_cycle1/docking_1vjy/cand_0003_dock.pdbqt
 OpenBabel03012623503D

 23 21  0  0  0  0  0  0  0  0999 V2000
   19.2630   68.5950    5.9100 N   0  0  0  0  0  0  0  0  0  0  0  0
   18.0970   68.0450    5.4570 C   0  0  0  0  0  3  0  0  0  0  0  0
   17.0350   68.7300    5.2350 N   0  0  0  0  0  2  0  0  0  0  0  0
   20.0570   67.9640    5.8620 H   0  0  0  0  0  0  0  0  0  0  0  0
   16.0250   68.0380    4.4380 *   0  0  0  0  0  0  0  0  0  0  0  0
   15.7490   66.6620    4.7350 O   0  0  0  0  0  1  0  0  0  0  0  0
   14.5300   66.3600    5.2840 C   0  0  0  0  0  0  0  0  0  0  0  0
   13.8830   65.2320    4.7460 C   0  0  0  0  0  0  0  0  0  0  0  0
   12.6310   64.8490    5.2520 C   0  0  0  0  0  3  0  0  0  0  0  0
   12.0320   65.5700    6.2830 C   0  0  0  0  0  3  0  0  0  0  0  0
   13.9270   67.0700    6.3260 C   0  0  0  0  0  3  0  0  0  0  0  0
   12.6820   66.6770    6.8220 C   0  0  0  0  0  3  0  0  0  0  0  0
   14.5130   64.4390    3.6360 C   0  0  0  0  0  1  0  0  0  0  0  0
   19.6160   69.9280    5.4290 C   0  0  0  0  0  2  0  0  0  0  0  0
   20.1930   69.8320    4.0290 C   0  0  0  0  0  0  0  0  0  0  0  0
   19.4090   69.8360    2.8490 C   0  0  0  0  0  0  0  0  0  0  0  0
   21.5920   69.6700    3.9160 C   0  0  0  0  0  3  0  0  0  0  0  0
   20.0600   69.6750    1.6060 C   0  0  0  0  0  3  0  0  0  0  0  0
   22.2100   69.5240    2.6760 C   0  0  0  0  0  3  0  0  0  0  0  0
   21.4420   69.5230    1.5190 C   0  0  0  0  0  3  0  0  0  0  0  0
   17.8980   70.0060    2.8070 C   0  0  0  0  0  2  0  0  0  0  0  0
   17.2190   68.8290    2.2670 N   0  0  0  0  0  1  0  0  0  0  0  0
   16.4610   68.0430    2.9590 *   0  0  0  0  0  0  0  0  0  0  0  0
  2  1  1  0  0  0  0
  3  2  2  0  0  0  0
  4  1  1  0  0  0  0
  6  7  1  0  0  0  0
  7 11  1  0  0  0  0
  8  9  1  0  0  0  0
  8  7  2  0  0  0  0
  9 10  2  0  0  0  0
 10 12  1  0  0  0  0
 11 12  2  0  0  0  0
 13  8  1  0  0  0  0
 14  1  1  0  0  0  0
 15 14  1  0  0  0  0
 16 15  2  0  0  0  0
 17 15  1  0  0  0  0
 18 16  1  0  0  0  0
 19 17  2  0  0  0  0
 20 18  2  0  0  0  0
 20 19  1  0  0  0  0
 21 16  1  0  0  0  0
 22 21  1  0  0  0  0
M  END
>  <MODEL>
2

>  <REMARK>
 VINA RESULT:    -7.563      2.114      2.988
 INTER + INTRA:          -9.575
 INTER:                 -10.732
 INTRA:                   1.157
 UNBOUND:                 1.083
 SMILES Cc1ccccc1O[C@@H]1/C=N\Cc2ccccc2CN/C=N/1
 SMILES IDX 20 1 21 2 22 3 9 5 8 7 7 8 2 9 3 10 4 11 6 12 5 13 1 14
 SMILES IDX 19 15 18 16 13 17 17 18 14 19 16 20 15 21 12 22 11 23 10 24
 H PARENT 20 4
 Flexibility Score:   51.900

>  <TORSDO>
F 2

$$$$
research/ai4chem/closed_loop/ipf_cycle1/docking_1vjy/cand_0003_dock.pdbqt
 OpenBabel03012623503D

 23 21  0  0  0  0  0  0  0  0999 V2000
   18.5740   68.0670    4.7340 N   0  0  0  0  0  0  0  0  0  0  0  0
   18.9730   68.4310    5.9900 C   0  0  0  0  0  3  0  0  0  0  0  0
   18.7720   69.5980    6.4820 N   0  0  0  0  0  2  0  0  0  0  0  0
   18.6400   67.0690    4.5590 H   0  0  0  0  0  0  0  0  0  0  0  0
   18.9500   69.6840    7.9290 *   0  0  0  0  0  0  0  0  0  0  0  0
   20.0630   68.9980    8.5190 O   0  0  0  0  0  1  0  0  0  0  0  0
   21.0060   69.7530    9.1670 C   0  0  0  0  0  0  0  0  0  0  0  0
   21.0570   69.5930   10.5640 C   0  0  0  0  0  0  0  0  0  0  0  0
   21.9960   70.3260   11.3080 C   0  0  0  0  0  3  0  0  0  0  0  0
   22.8780   71.1990   10.6730 C   0  0  0  0  0  3  0  0  0  0  0  0
   21.9020   70.6220    8.5380 C   0  0  0  0  0  3  0  0  0  0  0  0
   22.8320   71.3440    9.2900 C   0  0  0  0  0  3  0  0  0  0  0  0
   20.1180   68.6540   11.2680 C   0  0  0  0  0  1  0  0  0  0  0  0
   17.3130   68.6090    4.2400 C   0  0  0  0  0  2  0  0  0  0  0  0
   16.1520   67.8420    4.8460 C   0  0  0  0  0  0  0  0  0  0  0  0
   15.5600   68.1590    6.0930 C   0  0  0  0  0  0  0  0  0  0  0  0
   15.6850   66.7120    4.1390 C   0  0  0  0  0  3  0  0  0  0  0  0
   14.5280   67.3290    6.5810 C   0  0  0  0  0  3  0  0  0  0  0  0
   14.6560   65.9150    4.6390 C   0  0  0  0  0  3  0  0  0  0  0  0
   14.0790   66.2230    5.8630 C   0  0  0  0  0  3  0  0  0  0  0  0
   15.9490   69.3440    6.9660 C   0  0  0  0  0  2  0  0  0  0  0  0
   16.4720   68.9300    8.2670 N   0  0  0  0  0  1  0  0  0  0  0  0
   17.7020   69.0780    8.6380 *   0  0  0  0  0  0  0  0  0  0  0  0
  1  2  1  0  0  0  0
  2  3  2  0  0  0  0
  4  1  1  0  0  0  0
  6  7  1  0  0  0  0
  7  8  1  0  0  0  0
  8 13  1  0  0  0  0
  8  9  2  0  0  0  0
 10  9  1  0  0  0  0
 11  7  2  0  0  0  0
 11 12  1  0  0  0  0
 12 10  2  0  0  0  0
 14  1  1  0  0  0  0
 14 15  1  0  0  0  0
 15 16  1  0  0  0  0
 16 18  2  0  0  0  0
 16 21  1  0  0  0  0
 17 19  1  0  0  0  0
 17 15  2  0  0  0  0
 19 20  2  0  0  0  0
 20 18  1  0  0  0  0
 21 22  1  0  0  0  0
M  END
>  <MODEL>
3

>  <REMARK>
 VINA RESULT:    -6.574      3.308      8.195
 INTER + INTRA:          -8.182
 INTER:                  -9.361
 INTRA:                   1.179
 UNBOUND:                 1.083
 SMILES Cc1ccccc1O[C@@H]1/C=N\Cc2ccccc2CN/C=N/1
 SMILES IDX 20 1 21 2 22 3 9 5 8 7 7 8 2 9 3 10 4 11 6 12 5 13 1 14
 SMILES IDX 19 15 18 16 13 17 17 18 14 19 16 20 15 21 12 22 11 23 10 24
 H PARENT 20 4
 Flexibility Score:   51.900

>  <TORSDO>
F 2

$$$$
research/ai4chem/closed_loop/ipf_cycle1/docking_1vjy/cand_0003_dock.pdbqt
 OpenBabel03012623503D

 23 21  0  0  0  0  0  0  0  0999 V2000
   13.1120   67.4620    6.5620 N   0  0  0  0  0  0  0  0  0  0  0  0
   14.1930   67.7180    5.7650 C   0  0  0  0  0  3  0  0  0  0  0  0
   15.3280   67.1390    5.9090 N   0  0  0  0  0  2  0  0  0  0  0  0
   12.2450   67.8580    6.2130 H   0  0  0  0  0  0  0  0  0  0  0  0
   16.2290   67.2820    4.7690 *   0  0  0  0  0  0  0  0  0  0  0  0
   16.3720   68.5790    4.1730 O   0  0  0  0  0  1  0  0  0  0  0  0
   17.5830   68.8950    3.6160 C   0  0  0  0  0  0  0  0  0  0  0  0
   17.5410   69.3410    2.2820 C   0  0  0  0  0  0  0  0  0  0  0  0
   18.7370   69.6890    1.6330 C   0  0  0  0  0  3  0  0  0  0  0  0
   19.9570   69.6040    2.3020 C   0  0  0  0  0  3  0  0  0  0  0  0
   18.8100   68.8230    4.2820 C   0  0  0  0  0  3  0  0  0  0  0  0
   19.9920   69.1740    3.6250 C   0  0  0  0  0  3  0  0  0  0  0  0
   16.2360   69.4440    1.5440 C   0  0  0  0  0  1  0  0  0  0  0  0
   12.9210   66.0900    7.0230 C   0  0  0  0  0  2  0  0  0  0  0  0
   12.3010   65.2580    5.9160 C   0  0  0  0  0  0  0  0  0  0  0  0
   13.0490   64.6110    4.9020 C   0  0  0  0  0  0  0  0  0  0  0  0
   10.8920   65.1850    5.8740 C   0  0  0  0  0  3  0  0  0  0  0  0
   12.3520   63.9190    3.8870 C   0  0  0  0  0  3  0  0  0  0  0  0
   10.2280   64.4860    4.8660 C   0  0  0  0  0  3  0  0  0  0  0  0
   10.9600   63.8550    3.8700 C   0  0  0  0  0  3  0  0  0  0  0  0
   14.5680   64.5950    4.8140 C   0  0  0  0  0  2  0  0  0  0  0  0
   15.0640   65.2630    3.6130 N   0  0  0  0  0  1  0  0  0  0  0  0
   15.7380   66.3670    3.6190 *   0  0  0  0  0  0  0  0  0  0  0  0
  1 14  1  0  0  0  0
  2  3  2  0  0  0  0
  2  1  1  0  0  0  0
  4  1  1  0  0  0  0
  7  6  1  0  0  0  0
  7 11  1  0  0  0  0
  8  7  2  0  0  0  0
  9  8  1  0  0  0  0
  9 10  2  0  0  0  0
 10 12  1  0  0  0  0
 12 11  2  0  0  0  0
 13  8  1  0  0  0  0
 15 14  1  0  0  0  0
 16 15  2  0  0  0  0
 17 15  1  0  0  0  0
 18 16  1  0  0  0  0
 19 17  2  0  0  0  0
 20 18  2  0  0  0  0
 20 19  1  0  0  0  0
 21 16  1  0  0  0  0
 22 21  1  0  0  0  0
M  END
>  <MODEL>
4

>  <REMARK>
 VINA RESULT:    -6.465      2.016      6.838
 INTER + INTRA:          -8.028
 INTER:                  -9.533
 INTRA:                   1.505
 UNBOUND:                 1.083
 SMILES Cc1ccccc1O[C@@H]1/C=N\Cc2ccccc2CN/C=N/1
 SMILES IDX 20 1 21 2 22 3 9 5 8 7 7 8 2 9 3 10 4 11 6 12 5 13 1 14
 SMILES IDX 19 15 18 16 13 17 17 18 14 19 16 20 15 21 12 22 11 23 10 24
 H PARENT 20 4
 Flexibility Score:   51.900

>  <TORSDO>
F 2

$$$$
research/ai4chem/closed_loop/ipf_cycle1/docking_1vjy/cand_0003_dock.pdbqt
 OpenBabel03012623503D

 23 21  0  0  0  0  0  0  0  0999 V2000
   16.8760   68.6870    6.2960 N   0  0  0  0  0  0  0  0  0  0  0  0
   17.9890   69.2180    6.8870 C   0  0  0  0  0  3  0  0  0  0  0  0
   19.0720   68.5570    7.0700 N   0  0  0  0  0  2  0  0  0  0  0  0
   16.1710   69.3780    6.0590 H   0  0  0  0  0  0  0  0  0  0  0  0
   20.2370   69.3810    7.3860 *   0  0  0  0  0  0  0  0  0  0  0  0
   20.1020   70.3890    8.3960 O   0  0  0  0  0  1  0  0  0  0  0  0
   21.0380   70.4190    9.3970 C   0  0  0  0  0  0  0  0  0  0  0  0
   20.7120   69.6940   10.5580 C   0  0  0  0  0  0  0  0  0  0  0  0
   21.6150   69.6680   11.6320 C   0  0  0  0  0  3  0  0  0  0  0  0
   22.8310   70.3450   11.5520 C   0  0  0  0  0  3  0  0  0  0  0  0
   22.2650   71.0860    9.3220 C   0  0  0  0  0  3  0  0  0  0  0  0
   23.1560   71.0500   10.3970 C   0  0  0  0  0  3  0  0  0  0  0  0
   19.4080   68.9540   10.6630 C   0  0  0  0  0  1  0  0  0  0  0  0
   17.0750   67.7370    5.2060 C   0  0  0  0  0  2  0  0  0  0  0  0
   17.3780   68.4870    3.9220 C   0  0  0  0  0  0  0  0  0  0  0  0
   18.6720   68.9260    3.5500 C   0  0  0  0  0  0  0  0  0  0  0  0
   16.2840   68.8090    3.0890 C   0  0  0  0  0  3  0  0  0  0  0  0
   18.8160   69.6720    2.3600 C   0  0  0  0  0  3  0  0  0  0  0  0
   16.4550   69.5380    1.9130 C   0  0  0  0  0  3  0  0  0  0  0  0
   17.7220   69.9730    1.5500 C   0  0  0  0  0  3  0  0  0  0  0  0
   19.9450   68.6540    4.3380 C   0  0  0  0  0  2  0  0  0  0  0  0
   20.5500   69.8770    4.8610 N   0  0  0  0  0  1  0  0  0  0  0  0
   20.6610   70.1540    6.1190 *   0  0  0  0  0  0  0  0  0  0  0  0
  1  2  1  0  0  0  0
  2  3  2  0  0  0  0
  4  1  1  0  0  0  0
  6  7  1  0  0  0  0
  7  8  1  0  0  0  0
  8 13  1  0  0  0  0
  8  9  2  0  0  0  0
 10  9  1  0  0  0  0
 11  7  2  0  0  0  0
 11 12  1  0  0  0  0
 12 10  2  0  0  0  0
 14  1  1  0  0  0  0
 15 14  1  0  0  0  0
 16 15  1  0  0  0  0
 16 21  1  0  0  0  0
 17 15  2  0  0  0  0
 18 16  2  0  0  0  0
 19 17  1  0  0  0  0
 20 19  2  0  0  0  0
 20 18  1  0  0  0  0
 21 22  1  0  0  0  0
M  END
>  <MODEL>
5

>  <REMARK>
 VINA RESULT:    -6.425      4.466      8.198
 INTER + INTRA:          -7.971
 INTER:                  -9.565
 INTRA:                   1.594
 UNBOUND:                 1.083
 SMILES Cc1ccccc1O[C@@H]1/C=N\Cc2ccccc2CN/C=N/1
 SMILES IDX 20 1 21 2 22 3 9 5 8 7 7 8 2 9 3 10 4 11 6 12 5 13 1 14
 SMILES IDX 19 15 18 16 13 17 17 18 14 19 16 20 15 21 12 22 11 23 10 24
 H PARENT 20 4
 Flexibility Score:   51.900

>  <TORSDO>
F 2

$$$$
research/ai4chem/closed_loop/ipf_cycle1/docking_1vjy/cand_0003_dock.pdbqt
 OpenBabel03012623503D

 23 21  0  0  0  0  0  0  0  0999 V2000
   18.2900   68.1030    4.4300 N   0  0  0  0  0  0  0  0  0  0  0  0
   18.7710   68.4230    5.6690 C   0  0  0  0  0  3  0  0  0  0  0  0
   18.5400   69.5450    6.2450 N   0  0  0  0  0  2  0  0  0  0  0  0
   18.4030   67.1230    4.1890 H   0  0  0  0  0  0  0  0  0  0  0  0
   18.8350   69.5620    7.6750 *   0  0  0  0  0  0  0  0  0  0  0  0
   20.0100   68.8800    8.1360 O   0  0  0  0  0  1  0  0  0  0  0  0
   20.8510   69.5560    8.9810 C   0  0  0  0  0  0  0  0  0  0  0  0
   21.8760   70.2920    8.3590 C   0  0  0  0  0  0  0  0  0  0  0  0
   22.7810   71.0180    9.1500 C   0  0  0  0  0  3  0  0  0  0  0  0
   22.6660   71.0190   10.5390 C   0  0  0  0  0  3  0  0  0  0  0  0
   20.7360   69.5720   10.3740 C   0  0  0  0  0  3  0  0  0  0  0  0
   21.6420   70.3000   11.1490 C   0  0  0  0  0  3  0  0  0  0  0  0
   22.0150   70.3070    6.8630 C   0  0  0  0  0  1  0  0  0  0  0  0
   16.9600   68.5860    4.0730 C   0  0  0  0  0  2  0  0  0  0  0  0
   15.9040   67.7240    4.7410 C   0  0  0  0  0  0  0  0  0  0  0  0
   15.4000   67.9600    6.0430 C   0  0  0  0  0  0  0  0  0  0  0  0
   15.4540   66.5900    4.0310 C   0  0  0  0  0  3  0  0  0  0  0  0
   14.4660   67.0470    6.5810 C   0  0  0  0  0  3  0  0  0  0  0  0
   14.5230   65.7090    4.5810 C   0  0  0  0  0  3  0  0  0  0  0  0
   14.0310   65.9370    5.8590 C   0  0  0  0  0  3  0  0  0  0  0  0
   15.7840   69.1380    6.9270 C   0  0  0  0  0  2  0  0  0  0  0  0
   16.4220   68.7160    8.1710 N   0  0  0  0  0  1  0  0  0  0  0  0
   17.6710   68.9070    8.4510 *   0  0  0  0  0  0  0  0  0  0  0  0
  1  2  1  0  0  0  0
  2  3  2  0  0  0  0
  4  1  1  0  0  0  0
  6  7  1  0  0  0  0
  7 11  1  0  0  0  0
  8  7  2  0  0  0  0
  8  9  1  0  0  0  0
  9 10  2  0  0  0  0
 10 12  1  0  0  0  0
 11 12  2  0  0  0  0
 13  8  1  0  0  0  0
 14  1  1  0  0  0  0
 14 15  1  0  0  0  0
 15 16  1  0  0  0  0
 16 18  2  0  0  0  0
 16 21  1  0  0  0  0
 17 19  1  0  0  0  0
 17 15  2  0  0  0  0
 19 20  2  0  0  0  0
 20 18  1  0  0  0  0
 21 22  1  0  0  0  0
M  END
>  <MODEL>
6

>  <REMARK>
 VINA RESULT:    -6.389      3.086      8.010
 INTER + INTRA:          -7.921
 INTER:                  -9.295
 INTRA:                   1.374
 UNBOUND:                 1.083
 SMILES Cc1ccccc1O[C@@H]1/C=N\Cc2ccccc2CN/C=N/1
 SMILES IDX 20 1 21 2 22 3 9 5 8 7 7 8 2 9 3 10 4 11 6 12 5 13 1 14
 SMILES IDX 19 15 18 16 13 17 17 18 14 19 16 20 15 21 12 22 11 23 10 24
 H PARENT 20 4
 Flexibility Score:   51.900

>  <TORSDO>
F 2

$$$$
research/ai4chem/closed_loop/ipf_cycle1/docking_1vjy/cand_0003_dock.pdbqt
 OpenBabel03012623503D

 23 21  0  0  0  0  0  0  0  0999 V2000
   17.1100   66.8400    8.9400 N   0  0  0  0  0  0  0  0  0  0  0  0
   16.4350   66.7850    7.7530 C   0  0  0  0  0  3  0  0  0  0  0  0
   15.6270   67.6990    7.3590 N   0  0  0  0  0  2  0  0  0  0  0  0
   17.8420   66.1410    9.0260 H   0  0  0  0  0  0  0  0  0  0  0  0
   15.2830   67.6330    5.9410 *   0  0  0  0  0  0  0  0  0  0  0  0
   15.0720   66.3420    5.3520 O   0  0  0  0  0  1  0  0  0  0  0  0
   13.8170   65.7980    5.4390 C   0  0  0  0  0  0  0  0  0  0  0  0
   13.5380   64.7640    4.5270 C   0  0  0  0  0  0  0  0  0  0  0  0
   12.2760   64.1480    4.5480 C   0  0  0  0  0  3  0  0  0  0  0  0
   11.3080   64.5470    5.4680 C   0  0  0  0  0  3  0  0  0  0  0  0
   12.8440   66.1840    6.3660 C   0  0  0  0  0  3  0  0  0  0  0  0
   11.5940   65.5610    6.3770 C   0  0  0  0  0  3  0  0  0  0  0  0
   14.5690   64.3170    3.5290 C   0  0  0  0  0  1  0  0  0  0  0  0
   17.5700   68.1470    9.3990 C   0  0  0  0  0  2  0  0  0  0  0  0
   18.8160   68.5510    8.6320 C   0  0  0  0  0  0  0  0  0  0  0  0
   18.7950   69.2380    7.3950 C   0  0  0  0  0  0  0  0  0  0  0  0
   20.0610   68.1570    9.1710 C   0  0  0  0  0  3  0  0  0  0  0  0
   20.0210   69.5000    6.7460 C   0  0  0  0  0  3  0  0  0  0  0  0
   21.2590   68.4370    8.5150 C   0  0  0  0  0  3  0  0  0  0  0  0
   21.2380   69.1070    7.3000 C   0  0  0  0  0  3  0  0  0  0  0  0
   17.5370   69.7310    6.6930 C   0  0  0  0  0  2  0  0  0  0  0  0
   17.3590   69.1230    5.3760 N   0  0  0  0  0  1  0  0  0  0  0  0
   16.4330   68.2660    5.0890 *   0  0  0  0  0  0  0  0  0  0  0  0
  1  4  1  0  0  0  0
  1 14  1  0  0  0  0
  2  1  1  0  0  0  0
  3  2  2  0  0  0  0
  6  7  1  0  0  0  0
  7 11  1  0  0  0  0
  8  9  1  0  0  0  0
  8  7  2  0  0  0  0
  9 10  2  0  0  0  0
 10 12  1  0  0  0  0
 11 12  2  0  0  0  0
 13  8  1  0  0  0  0
 15 17  1  0  0  0  0
 15 14  1  0  0  0  0
 16 15  2  0  0  0  0
 18 20  2  0  0  0  0
 18 16  1  0  0  0  0
 19 17  2  0  0  0  0
 20 19  1  0  0  0  0
 21 16  1  0  0  0  0
 22 21  1  0  0  0  0
M  END
>  <MODEL>
7

>  <REMARK>
 VINA RESULT:    -6.368      1.338      1.574
 INTER + INTRA:          -7.891
 INTER:                  -9.039
 INTRA:                   1.148
 UNBOUND:                 1.083
 SMILES Cc1ccccc1O[C@@H]1/C=N\Cc2ccccc2CN/C=N/1
 SMILES IDX 20 1 21 2 22 3 9 5 8 7 7 8 2 9 3 10 4 11 6 12 5 13 1 14
 SMILES IDX 19 15 18 16 13 17 17 18 14 19 16 20 15 21 12 22 11 23 10 24
 H PARENT 20 4
 Flexibility Score:   51.900

>  <TORSDO>
F 2

$$$$
research/ai4chem/closed_loop/ipf_cycle1/docking_1vjy/cand_0003_dock.pdbqt
 OpenBabel03012623503D

 23 21  0  0  0  0  0  0  0  0999 V2000
   21.8410   69.5920    7.1950 N   0  0  0  0  0  0  0  0  0  0  0  0
   20.6350   69.3650    6.5930 C   0  0  0  0  0  3  0  0  0  0  0  0
   20.2160   68.1960    6.2750 N   0  0  0  0  0  2  0  0  0  0  0  0
   21.9500   70.5380    7.5460 H   0  0  0  0  0  0  0  0  0  0  0  0
   18.7890   68.1270    5.9720 *   0  0  0  0  0  0  0  0  0  0  0  0
   18.1820   69.2360    5.2950 O   0  0  0  0  0  1  0  0  0  0  0  0
   18.1510   69.2080    3.9250 C   0  0  0  0  0  0  0  0  0  0  0  0
   16.9520   68.7430    3.3540 C   0  0  0  0  0  0  0  0  0  0  0  0
   16.8320   68.6840    1.9560 C   0  0  0  0  0  3  0  0  0  0  0  0
   17.8840   69.0880    1.1370 C   0  0  0  0  0  3  0  0  0  0  0  0
   19.1970   69.6210    3.0950 C   0  0  0  0  0  3  0  0  0  0  0  0
   19.0630   69.5580    1.7060 C   0  0  0  0  0  3  0  0  0  0  0  0
   15.8030   68.3070    4.2190 C   0  0  0  0  0  1  0  0  0  0  0  0
   22.3100   68.6090    8.1670 C   0  0  0  0  0  2  0  0  0  0  0  0
   21.5640   68.7860    9.4760 C   0  0  0  0  0  0  0  0  0  0  0  0
   20.3350   68.1500    9.7770 C   0  0  0  0  0  0  0  0  0  0  0  0
   22.1110   69.6890   10.4140 C   0  0  0  0  0  3  0  0  0  0  0  0
   19.7040   68.4470   11.0050 C   0  0  0  0  0  3  0  0  0  0  0  0
   21.4740   69.9560   11.6250 C   0  0  0  0  0  3  0  0  0  0  0  0
   20.2670   69.3360   11.9190 C   0  0  0  0  0  3  0  0  0  0  0  0
   19.6250   67.1530    8.8740 C   0  0  0  0  0  2  0  0  0  0  0  0
   18.2950   67.6100    8.4740 N   0  0  0  0  0  1  0  0  0  0  0  0
   17.9870   67.9970    7.2800 *   0  0  0  0  0  0  0  0  0  0  0  0
  1  4  1  0  0  0  0
  1 14  1  0  0  0  0
  2  1  1  0  0  0  0
  3  2  2  0  0  0  0
  7  6  1  0  0  0  0
  8  7  1  0  0  0  0
  8 13  1  0  0  0  0
  9  8  2  0  0  0  0
 10 12  2  0  0  0  0
 10  9  1  0  0  0  0
 11  7  2  0  0  0  0
 12 11  1  0  0  0  0
 14 15  1  0  0  0  0
 15 16  2  0  0  0  0
 15 17  1  0  0  0  0
 16 18  1  0  0  0  0
 17 19  2  0  0  0  0
 18 20  2  0  0  0  0
 19 20  1  0  0  0  0
 21 16  1  0  0  0  0
 22 21  1  0  0  0  0
M  END
>  <MODEL>
8

>  <REMARK>
 VINA RESULT:    -6.138      3.861      6.104
 INTER + INTRA:          -7.567
 INTER:                  -8.624
 INTRA:                   1.057
 UNBOUND:                 1.083
 SMILES Cc1ccccc1O[C@@H]1/C=N\Cc2ccccc2CN/C=N/1
 SMILES IDX 20 1 21 2 22 3 9 5 8 7 7 8 2 9 3 10 4 11 6 12 5 13 1 14
 SMILES IDX 19 15 18 16 13 17 17 18 14 19 16 20 15 21 12 22 11 23 10 24
 H PARENT 20 4
 Flexibility Score:   51.900

>  <TORSDO>
F 2

$$$$
research/ai4chem/closed_loop/ipf_cycle1/docking_1vjy/cand_0003_dock.pdbqt
 OpenBabel03012623503D

 23 21  0  0  0  0  0  0  0  0999 V2000
   20.9770   70.5170    6.4820 N   0  0  0  0  0  0  0  0  0  0  0  0
   19.8200   69.7920    6.5600 C   0  0  0  0  0  3  0  0  0  0  0  0
   19.7820   68.5140    6.4660 N   0  0  0  0  0  2  0  0  0  0  0  0
   20.8690   71.4880    6.7540 H   0  0  0  0  0  0  0  0  0  0  0  0
   18.5310   67.9120    6.9170 *   0  0  0  0  0  0  0  0  0  0  0  0
   17.2990   68.5580    6.5660 O   0  0  0  0  0  1  0  0  0  0  0  0
   16.3500   67.8130    5.9170 C   0  0  0  0  0  0  0  0  0  0  0  0
   16.3250   67.9450    4.5170 C   0  0  0  0  0  0  0  0  0  0  0  0
   15.3850   67.2150    3.7720 C   0  0  0  0  0  3  0  0  0  0  0  0
   14.4870   66.3590    4.4070 C   0  0  0  0  0  3  0  0  0  0  0  0
   15.4520   66.9440    6.5450 C   0  0  0  0  0  3  0  0  0  0  0  0
   14.5240   66.2220    5.7920 C   0  0  0  0  0  3  0  0  0  0  0  0
   17.2870   68.8590    3.8110 C   0  0  0  0  0  1  0  0  0  0  0  0
   22.1820   69.9340    7.0650 C   0  0  0  0  0  2  0  0  0  0  0  0
   22.1530   70.0970    8.5730 C   0  0  0  0  0  0  0  0  0  0  0  0
   21.5380   69.1760    9.4560 C   0  0  0  0  0  0  0  0  0  0  0  0
   22.7250   71.2730    9.1070 C   0  0  0  0  0  3  0  0  0  0  0  0
   21.5190   69.4730   10.8360 C   0  0  0  0  0  3  0  0  0  0  0  0
   22.7030   71.5370   10.4760 C   0  0  0  0  0  3  0  0  0  0  0  0
   22.0970   70.6360   11.3410 C   0  0  0  0  0  3  0  0  0  0  0  0
   20.8850   67.8680    9.0340 C   0  0  0  0  0  2  0  0  0  0  0  0
   19.4590   67.8280    9.3510 N   0  0  0  0  0  1  0  0  0  0  0  0
   18.5150   67.8420    8.4670 *   0  0  0  0  0  0  0  0  0  0  0  0
  1  2  1  0  0  0  0
  1  4  1  0  0  0  0
  1 14  1  0  0  0  0
  3  2  2  0  0  0  0
  7 11  1  0  0  0  0
  7  6  1  0  0  0  0
  8  7  2  0  0  0  0
  9 10  2  0  0  0  0
  9  8  1  0  0  0  0
 10 12  1  0  0  0  0
 12 11  2  0  0  0  0
 13  8  1  0  0  0  0
 14 15  1  0  0  0  0
 15 17  2  0  0  0  0
 15 16  1  0  0  0  0
 16 18  2  0  0  0  0
 17 19  1  0  0  0  0
 18 20  1  0  0  0  0
 19 20  2  0  0  0  0
 21 22  1  0  0  0  0
 21 16  1  0  0  0  0
M  END
>  <MODEL>
9

>  <REMARK>
 VINA RESULT:    -6.109      3.213      5.190
 INTER + INTRA:          -7.526
 INTER:                  -8.779
 INTRA:                   1.253
 UNBOUND:                 1.083
 SMILES Cc1ccccc1O[C@@H]1/C=N\Cc2ccccc2CN/C=N/1
 SMILES IDX 20 1 21 2 22 3 9 5 8 7 7 8 2 9 3 10 4 11 6 12 5 13 1 14
 SMILES IDX 19 15 18 16 13 17 17 18 14 19 16 20 15 21 12 22 11 23 10 24
 H PARENT 20 4
 Flexibility Score:   51.900

>  <TORSDO>
F 2

$$$$
research/ai4chem/closed_loop/ipf_cycle1/docking_1vjy/cand_0003_dock.pdbqt
 OpenBabel03012623503D

 23 21  0  0  0  0  0  0  0  0999 V2000
   21.1210   70.5690    6.8470 N   0  0  0  0  0  0  0  0  0  0  0  0
   19.9640   69.8440    6.9150 C   0  0  0  0  0  3  0  0  0  0  0  0
   19.9210   68.5700    6.7730 N   0  0  0  0  0  2  0  0  0  0  0  0
   21.0190   71.5300    7.1580 H   0  0  0  0  0  0  0  0  0  0  0  0
   18.6750   67.9540    7.2190 *   0  0  0  0  0  0  0  0  0  0  0  0
   17.4420   68.6310    6.9380 O   0  0  0  0  0  1  0  0  0  0  0  0
   16.8390   68.3850    5.7330 C   0  0  0  0  0  0  0  0  0  0  0  0
   15.5930   67.7330    5.7970 C   0  0  0  0  0  0  0  0  0  0  0  0
   14.9040   67.4440    4.6080 C   0  0  0  0  0  3  0  0  0  0  0  0
   15.4400   67.8040    3.3730 C   0  0  0  0  0  3  0  0  0  0  0  0
   17.3630   68.7510    4.4900 C   0  0  0  0  0  3  0  0  0  0  0  0
   16.6660   68.4600    3.3150 C   0  0  0  0  0  3  0  0  0  0  0  0
   14.9960   67.3400    7.1190 C   0  0  0  0  0  1  0  0  0  0  0  0
   22.3330   69.9630    7.3910 C   0  0  0  0  0  2  0  0  0  0  0  0
   22.3220   70.0640    8.9050 C   0  0  0  0  0  0  0  0  0  0  0  0
   21.7210   69.1050    9.7570 C   0  0  0  0  0  0  0  0  0  0  0  0
   22.8980   71.2190    9.4790 C   0  0  0  0  0  3  0  0  0  0  0  0
   21.7200   69.3450   11.1480 C   0  0  0  0  0  3  0  0  0  0  0  0
   22.8930   71.4260   10.8570 C   0  0  0  0  0  3  0  0  0  0  0  0
   22.3010   70.4890   11.6930 C   0  0  0  0  0  3  0  0  0  0  0  0
   21.0670   67.8130    9.2900 C   0  0  0  0  0  2  0  0  0  0  0  0
   19.6460   67.7540    9.6270 N   0  0  0  0  0  1  0  0  0  0  0  0
   18.6890   67.8120    8.7590 *   0  0  0  0  0  0  0  0  0  0  0  0
  1  2  1  0  0  0  0
  1  4  1  0  0  0  0
  1 14  1  0  0  0  0
  3  2  2  0  0  0  0
  7  8  1  0  0  0  0
  7  6  1  0  0  0  0
  8 13  1  0  0  0  0
  9  8  2  0  0  0  0
 10  9  1  0  0  0  0
 11  7  2  0  0  0  0
 12 10  2  0  0  0  0
 12 11  1  0  0  0  0
 14 15  1  0  0  0  0
 15 17  2  0  0  0  0
 15 16  1  0  0  0  0
 16 18  2  0  0  0  0
 17 19  1  0  0  0  0
 18 20  1  0  0  0  0
 19 20  2  0  0  0  0
 21 22  1  0  0  0  0
 21 16  1  0  0  0  0
M  END
>  <MODEL>
10

>  <REMARK>
 VINA RESULT:    -6.104      3.473      5.683
 INTER + INTRA:          -7.519
 INTER:                  -8.617
 INTRA:                   1.098
 UNBOUND:                 1.083
 SMILES Cc1ccccc1O[C@@H]1/C=N\Cc2ccccc2CN/C=N/1
 SMILES IDX 20 1 21 2 22 3 9 5 8 7 7 8 2 9 3 10 4 11 6 12 5 13 1 14
 SMILES IDX 19 15 18 16 13 17 17 18 14 19 16 20 15 21 12 22 11 23 10 24
 H PARENT 20 4
 Flexibility Score:   51.900

>  <TORSDO>
F 2

$$$$
research/ai4chem/closed_loop/ipf_cycle1/docking_1vjy/cand_0003_dock.pdbqt
 OpenBabel03012623503D

 23 21  0  0  0  0  0  0  0  0999 V2000
   18.2500   68.1790   10.2550 N   0  0  0  0  0  0  0  0  0  0  0  0
   18.2470   68.3040    8.8930 C   0  0  0  0  0  3  0  0  0  0  0  0
   18.0490   69.4170    8.2880 N   0  0  0  0  0  2  0  0  0  0  0  0
   18.5980   67.2830   10.5810 H   0  0  0  0  0  0  0  0  0  0  0  0
   18.4260   69.4140    6.8780 *   0  0  0  0  0  0  0  0  0  0  0  0
   18.2210   68.2130    6.1210 O   0  0  0  0  0  1  0  0  0  0  0  0
   17.4980   68.3050    4.9610 C   0  0  0  0  0  0  0  0  0  0  0  0
   16.1550   67.8910    5.0460 C   0  0  0  0  0  0  0  0  0  0  0  0
   15.3400   67.9550    3.9050 C   0  0  0  0  0  3  0  0  0  0  0  0
   15.8480   68.4300    2.6970 C   0  0  0  0  0  3  0  0  0  0  0  0
   17.9950   68.7890    3.7480 C   0  0  0  0  0  3  0  0  0  0  0  0
   17.1730   68.8490    2.6200 C   0  0  0  0  0  3  0  0  0  0  0  0
   15.5870   67.3800    6.3400 C   0  0  0  0  0  1  0  0  0  0  0  0
   18.8060   69.2790   11.0350 C   0  0  0  0  0  2  0  0  0  0  0  0
   20.3220   69.2370   10.9730 C   0  0  0  0  0  0  0  0  0  0  0  0
   21.0900   69.8790    9.9720 C   0  0  0  0  0  0  0  0  0  0  0  0
   20.9860   68.4570   11.9450 C   0  0  0  0  0  3  0  0  0  0  0  0
   22.4920   69.7110    9.9840 C   0  0  0  0  0  3  0  0  0  0  0  0
   22.3730   68.3160   11.9420 C   0  0  0  0  0  3  0  0  0  0  0  0
   23.1270   68.9420   10.9580 C   0  0  0  0  0  3  0  0  0  0  0  0
   20.5220   70.7540    8.8640 C   0  0  0  0  0  2  0  0  0  0  0  0
   20.8220   70.2330    7.5320 N   0  0  0  0  0  1  0  0  0  0  0  0
   19.9470   69.7000    6.7440 *   0  0  0  0  0  0  0  0  0  0  0  0
  1  4  1  0  0  0  0
  1 14  1  0  0  0  0
  2  1  1  0  0  0  0
  3  2  2  0  0  0  0
  7  8  1  0  0  0  0
  7  6  1  0  0  0  0
  8 13  1  0  0  0  0
  9  8  2  0  0  0  0
 10  9  1  0  0  0  0
 11  7  2  0  0  0  0
 12 10  2  0  0  0  0
 12 11  1  0  0  0  0
 15 14  1  0  0  0  0
 15 17  1  0  0  0  0
 16 18  1  0  0  0  0
 16 15  2  0  0  0  0
 18 20  2  0  0  0  0
 19 17  2  0  0  0  0
 20 19  1  0  0  0  0
 21 16  1  0  0  0  0
 22 21  1  0  0  0  0
M  END
>  <MODEL>
11

>  <REMARK>
 VINA RESULT:    -5.933      3.644      5.509
 INTER + INTRA:          -7.278
 INTER:                  -8.381
 INTRA:                   1.103
 UNBOUND:                 1.083
 SMILES Cc1ccccc1O[C@@H]1/C=N\Cc2ccccc2CN/C=N/1
 SMILES IDX 20 1 21 2 22 3 9 5 8 7 7 8 2 9 3 10 4 11 6 12 5 13 1 14
 SMILES IDX 19 15 18 16 13 17 17 18 14 19 16 20 15 21 12 22 11 23 10 24
 H PARENT 20 4
 Flexibility Score:   51.900

>  <TORSDO>
F 2

$$$$
research/ai4chem/closed_loop/ipf_cycle1/docking_1vjy/cand_0003_dock.pdbqt
 OpenBabel03012623503D

 23 21  0  0  0  0  0  0  0  0999 V2000
   18.4590   67.8170    9.5470 N   0  0  0  0  0  0  0  0  0  0  0  0
   18.5530   68.0880    8.2110 C   0  0  0  0  0  3  0  0  0  0  0  0
   18.1990   69.2060    7.6920 N   0  0  0  0  0  2  0  0  0  0  0  0
   18.9440   66.9690    9.8260 H   0  0  0  0  0  0  0  0  0  0  0  0
   18.6930   69.4270    6.3360 *   0  0  0  0  0  0  0  0  0  0  0  0
   18.5930   68.3520    5.3920 O   0  0  0  0  0  1  0  0  0  0  0  0
   17.5110   68.3390    4.5510 C   0  0  0  0  0  0  0  0  0  0  0  0
   17.6610   69.0650    3.3550 C   0  0  0  0  0  0  0  0  0  0  0  0
   16.6020   69.1030    2.4340 C   0  0  0  0  0  3  0  0  0  0  0  0
   15.4130   68.4230    2.6930 C   0  0  0  0  0  3  0  0  0  0  0  0
   16.3190   67.6510    4.7970 C   0  0  0  0  0  3  0  0  0  0  0  0
   15.2740   67.6960    3.8710 C   0  0  0  0  0  3  0  0  0  0  0  0
   18.9360   69.8020    3.0550 C   0  0  0  0  0  1  0  0  0  0  0  0
   18.7210   68.9080   10.4800 C   0  0  0  0  0  2  0  0  0  0  0  0
   20.2180   69.1110   10.6260 C   0  0  0  0  0  0  0  0  0  0  0  0
   20.9940   69.9170    9.7570 C   0  0  0  0  0  0  0  0  0  0  0  0
   20.8690   68.4000   11.6570 C   0  0  0  0  0  3  0  0  0  0  0  0
   22.3910   69.9740    9.9570 C   0  0  0  0  0  3  0  0  0  0  0  0
   22.2490   68.4820   11.8400 C   0  0  0  0  0  3  0  0  0  0  0  0
   23.0110   69.2680   10.9860 C   0  0  0  0  0  3  0  0  0  0  0  0
   20.4390   70.7440    8.6070 C   0  0  0  0  0  2  0  0  0  0  0  0
   20.9410   70.3010    7.3080 N   0  0  0  0  0  1  0  0  0  0  0  0
   20.2080   69.7650    6.3870 *   0  0  0  0  0  0  0  0  0  0  0  0
  1  4  1  0  0  0  0
  1 14  1  0  0  0  0
  2  1  1  0  0  0  0
  3  2  2  0  0  0  0
  7 11  1  0  0  0  0
  7  6  1  0  0  0  0
  8  7  2  0  0  0  0
  9 10  2  0  0  0  0
  9  8  1  0  0  0  0
 10 12  1  0  0  0  0
 12 11  2  0  0  0  0
 13  8  1  0  0  0  0
 14 15  1  0  0  0  0
 15 17  1  0  0  0  0
 16 18  1  0  0  0  0
 16 15  2  0  0  0  0
 17 19  2  0  0  0  0
 18 20  2  0  0  0  0
 20 19  1  0  0  0  0
 21 16  1  0  0  0  0
 22 21  1  0  0  0  0
M  END
>  <MODEL>
12

>  <REMARK>
 VINA RESULT:    -5.804      3.637      5.511
 INTER + INTRA:          -7.097
 INTER:                  -8.500
 INTRA:                   1.403
 UNBOUND:                 1.083
 SMILES Cc1ccccc1O[C@@H]1/C=N\Cc2ccccc2CN/C=N/1
 SMILES IDX 20 1 21 2 22 3 9 5 8 7 7 8 2 9 3 10 4 11 6 12 5 13 1 14
 SMILES IDX 19 15 18 16 13 17 17 18 14 19 16 20 15 21 12 22 11 23 10 24
 H PARENT 20 4
 Flexibility Score:   51.900

>  <TORSDO>
F 2

$$$$
research/ai4chem/closed_loop/ipf_cycle1/docking_1vjy/cand_0003_dock.pdbqt
 OpenBabel03012623503D

 23 21  0  0  0  0  0  0  0  0999 V2000
   12.7420   67.1570    6.7790 N   0  0  0  0  0  0  0  0  0  0  0  0
   13.9340   67.4670    6.1860 C   0  0  0  0  0  3  0  0  0  0  0  0
   15.0320   66.8620    6.4560 N   0  0  0  0  0  2  0  0  0  0  0  0
   11.9400   67.5930    6.3340 H   0  0  0  0  0  0  0  0  0  0  0  0
   16.1010   67.0890    5.4870 *   0  0  0  0  0  0  0  0  0  0  0  0
   16.4630   68.4420    5.1770 O   0  0  0  0  0  1  0  0  0  0  0  0
   17.6630   68.9060    5.6480 C   0  0  0  0  0  0  0  0  0  0  0  0
   17.6200   69.5470    6.9010 C   0  0  0  0  0  0  0  0  0  0  0  0
   18.8050   70.0500    7.4590 C   0  0  0  0  0  3  0  0  0  0  0  0
   20.0190   69.9120    6.7890 C   0  0  0  0  0  3  0  0  0  0  0  0
   18.8870   68.7630    4.9880 C   0  0  0  0  0  3  0  0  0  0  0  0
   20.0600   69.2660    5.5570 C   0  0  0  0  0  3  0  0  0  0  0  0
   16.3220   69.7020    7.6420 C   0  0  0  0  0  1  0  0  0  0  0  0
   12.4810   65.7540    7.0860 C   0  0  0  0  0  2  0  0  0  0  0  0
   11.9950   65.0380    5.8390 C   0  0  0  0  0  0  0  0  0  0  0  0
   12.8550   64.5150    4.8430 C   0  0  0  0  0  0  0  0  0  0  0  0
   10.5990   64.9500    5.6470 C   0  0  0  0  0  3  0  0  0  0  0  0
   12.2800   63.9280    3.6950 C   0  0  0  0  0  3  0  0  0  0  0  0
   10.0570   64.3550    4.5090 C   0  0  0  0  0  3  0  0  0  0  0  0
   10.8990   63.8460    3.5300 C   0  0  0  0  0  3  0  0  0  0  0  0
   14.3760   64.5310    4.9080 C   0  0  0  0  0  2  0  0  0  0  0  0
   14.9690   65.3940    3.8890 N   0  0  0  0  0  1  0  0  0  0  0  0
   15.6860   66.4390    4.1470 *   0  0  0  0  0  0  0  0  0  0  0  0
  1 14  1  0  0  0  0
  2  3  2  0  0  0  0
  2  1  1  0  0  0  0
  4  1  1  0  0  0  0
  6  7  1  0  0  0  0
  7  8  1  0  0  0  0
  8  9  2  0  0  0  0
  8 13  1  0  0  0  0
 10  9  1  0  0  0  0
 11 12  1  0  0  0  0
 11  7  2  0  0  0  0
 12 10  2  0  0  0  0
 15 14  1  0  0  0  0
 16 21  1  0  0  0  0
 16 15  2  0  0  0  0
 17 15  1  0  0  0  0
 18 16  1  0  0  0  0
 19 17  2  0  0  0  0
 20 18  2  0  0  0  0
 20 19  1  0  0  0  0
 22 21  1  0  0  0  0
M  END
>  <MODEL>
13

>  <REMARK>
 VINA RESULT:    -5.673      1.464      7.051
 INTER + INTRA:          -6.911
 INTER:                  -8.657
 INTRA:                   1.746
 UNBOUND:                 1.083
 SMILES Cc1ccccc1O[C@@H]1/C=N\Cc2ccccc2CN/C=N/1
 SMILES IDX 20 1 21 2 22 3 9 5 8 7 7 8 2 9 3 10 4 11 6 12 5 13 1 14
 SMILES IDX 19 15 18 16 13 17 17 18 14 19 16 20 15 21 12 22 11 23 10 24
 H PARENT 20 4
 Flexibility Score:   51.900

>  <TORSDO>
F 2

$$$$
research/ai4chem/closed_loop/ipf_cycle1/docking_1vjy/cand_0003_dock.pdbqt
 OpenBabel03012623503D

 23 21  0  0  0  0  0  0  0  0999 V2000
   17.5890   69.4940    8.1610 N   0  0  0  0  0  0  0  0  0  0  0  0
   16.9850   68.6210    7.3000 C   0  0  0  0  0  3  0  0  0  0  0  0
   16.3450   68.9940    6.2530 N   0  0  0  0  0  2  0  0  0  0  0  0
   18.2030   69.0450    8.8330 H   0  0  0  0  0  0  0  0  0  0  0  0
   16.0790   67.9240    5.2940 *   0  0  0  0  0  0  0  0  0  0  0  0
   15.8450   66.6020    5.7980 O   0  0  0  0  0  1  0  0  0  0  0  0
   14.7940   65.8960    5.2720 C   0  0  0  0  0  0  0  0  0  0  0  0
   13.5550   66.0790    5.9150 C   0  0  0  0  0  0  0  0  0  0  0  0
   12.4240   65.3970    5.4400 C   0  0  0  0  0  3  0  0  0  0  0  0
   12.5190   64.5500    4.3370 C   0  0  0  0  0  3  0  0  0  0  0  0
   14.8770   65.0530    4.1600 C   0  0  0  0  0  3  0  0  0  0  0  0
   13.7430   64.3820    3.6960 C   0  0  0  0  0  3  0  0  0  0  0  0
   13.4310   66.9910    7.1030 C   0  0  0  0  0  1  0  0  0  0  0  0
   18.2090   70.6870    7.5920 C   0  0  0  0  0  2  0  0  0  0  0  0
   19.5290   70.3180    6.9410 C   0  0  0  0  0  0  0  0  0  0  0  0
   19.6590   69.9200    5.5880 C   0  0  0  0  0  0  0  0  0  0  0  0
   20.6780   70.3210    7.7630 C   0  0  0  0  0  3  0  0  0  0  0  0
   20.9340   69.5380    5.1160 C   0  0  0  0  0  3  0  0  0  0  0  0
   21.9270   69.9490    7.2690 C   0  0  0  0  0  3  0  0  0  0  0  0
   22.0540   69.5550    5.9440 C   0  0  0  0  0  3  0  0  0  0  0  0
   18.5200   69.8710    4.5810 C   0  0  0  0  0  2  0  0  0  0  0  0
   18.3130   68.5300    4.0380 N   0  0  0  0  0  1  0  0  0  0  0  0
   17.3180   67.7640    4.3480 *   0  0  0  0  0  0  0  0  0  0  0  0
  1  4  1  0  0  0  0
  2  1  1  0  0  0  0
  3  2  2  0  0  0  0
  7  6  1  0  0  0  0
  7  8  1  0  0  0  0
  8 13  1  0  0  0  0
  9  8  2  0  0  0  0
 10  9  1  0  0  0  0
 11  7  2  0  0  0  0
 12 11  1  0  0  0  0
 12 10  2  0  0  0  0
 14  1  1  0  0  0  0
 15 14  1  0  0  0  0
 15 17  1  0  0  0  0
 16 15  2  0  0  0  0
 18 16  1  0  0  0  0
 18 20  2  0  0  0  0
 19 17  2  0  0  0  0
 20 19  1  0  0  0  0
 21 16  1  0  0  0  0
 22 21  1  0  0  0  0
M  END
>  <MODEL>
14

>  <REMARK>
 VINA RESULT:    -5.612      1.682      2.485
 INTER + INTRA:          -6.826
 INTER:                  -8.047
 INTRA:                   1.221
 UNBOUND:                 1.083
 SMILES Cc1ccccc1O[C@@H]1/C=N\Cc2ccccc2CN/C=N/1
 SMILES IDX 20 1 21 2 22 3 9 5 8 7 7 8 2 9 3 10 4 11 6 12 5 13 1 14
 SMILES IDX 19 15 18 16 13 17 17 18 14 19 16 20 15 21 12 22 11 23 10 24
 H PARENT 20 4
 Flexibility Score:   51.900

>  <TORSDO>
F 2

$$$$
research/ai4chem/closed_loop/ipf_cycle1/docking_1vjy/cand_0003_dock.pdbqt
 OpenBabel03012623503D

 23 21  0  0  0  0  0  0  0  0999 V2000
   16.8670   67.7880    3.4200 N   0  0  0  0  0  0  0  0  0  0  0  0
   17.4770   68.0300    4.6190 C   0  0  0  0  0  3  0  0  0  0  0  0
   17.0940   68.9450    5.4320 N   0  0  0  0  0  2  0  0  0  0  0  0
   17.1650   66.9240    2.9780 H   0  0  0  0  0  0  0  0  0  0  0  0
   17.6350   68.8190    6.7820 *   0  0  0  0  0  0  0  0  0  0  0  0
   18.8730   68.1160    6.9560 O   0  0  0  0  0  1  0  0  0  0  0  0
   19.9670   68.8390    7.3530 C   0  0  0  0  0  0  0  0  0  0  0  0
   20.5220   68.4720    8.5930 C   0  0  0  0  0  0  0  0  0  0  0  0
   21.6470   69.1590    9.0760 C   0  0  0  0  0  3  0  0  0  0  0  0
   22.2200   70.1900    8.3340 C   0  0  0  0  0  3  0  0  0  0  0  0
   20.5550   69.8680    6.6110 C   0  0  0  0  0  3  0  0  0  0  0  0
   21.6760   70.5410    7.1020 C   0  0  0  0  0  3  0  0  0  0  0  0
   19.9220   67.3600    9.4070 C   0  0  0  0  0  1  0  0  0  0  0  0
   15.4170   67.9440    3.3530 C   0  0  0  0  0  2  0  0  0  0  0  0
   14.7430   66.7890    4.0720 C   0  0  0  0  0  0  0  0  0  0  0  0
   14.3880   66.8110    5.4420 C   0  0  0  0  0  0  0  0  0  0  0  0
   14.5180   65.6090    3.3290 C   0  0  0  0  0  3  0  0  0  0  0  0
   13.8240   65.6490    6.0130 C   0  0  0  0  0  3  0  0  0  0  0  0
   13.9500   64.4780    3.9140 C   0  0  0  0  0  3  0  0  0  0  0  0
   13.6060   64.4980    5.2580 C   0  0  0  0  0  3  0  0  0  0  0  0
   14.5620   68.0060    6.3690 C   0  0  0  0  0  2  0  0  0  0  0  0
   15.3760   67.6880    7.5400 N   0  0  0  0  0  1  0  0  0  0  0  0
   16.6160   68.0320    7.6810 *   0  0  0  0  0  0  0  0  0  0  0  0
  1  2  1  0  0  0  0
  2  3  2  0  0  0  0
  4  1  1  0  0  0  0
  6  7  1  0  0  0  0
  7  8  1  0  0  0  0
  8  9  2  0  0  0  0
  8 13  1  0  0  0  0
 10  9  1  0  0  0  0
 11 12  1  0  0  0  0
 11  7  2  0  0  0  0
 12 10  2  0  0  0  0
 14  1  1  0  0  0  0
 14 15  1  0  0  0  0
 15 16  1  0  0  0  0
 16 18  2  0  0  0  0
 16 21  1  0  0  0  0
 17 19  1  0  0  0  0
 17 15  2  0  0  0  0
 19 20  2  0  0  0  0
 20 18  1  0  0  0  0
 21 22  1  0  0  0  0
M  END
>  <MODEL>
15

>  <REMARK>
 VINA RESULT:    -5.565      2.154      7.396
 INTER + INTRA:          -6.759
 INTER:                  -7.518
 INTRA:                   0.759
 UNBOUND:                 1.083
 SMILES Cc1ccccc1O[C@@H]1/C=N\Cc2ccccc2CN/C=N/1
 SMILES IDX 20 1 21 2 22 3 9 5 8 7 7 8 2 9 3 10 4 11 6 12 5 13 1 14
 SMILES IDX 19 15 18 16 13 17 17 18 14 19 16 20 15 21 12 22 11 23 10 24
 H PARENT 20 4
 Flexibility Score:   51.900

>  <TORSDO>
F 2

$$$$
research/ai4chem/closed_loop/ipf_cycle1/docking_1vjy/cand_0003_dock.pdbqt
 OpenBabel03012623503D

 23 21  0  0  0  0  0  0  0  0999 V2000
   18.7090   70.0250    8.3700 N   0  0  0  0  0  0  0  0  0  0  0  0
   18.9160   69.7910    7.0390 C   0  0  0  0  0  3  0  0  0  0  0  0
   19.4510   70.6470    6.2480 N   0  0  0  0  0  2  0  0  0  0  0  0
   18.4490   69.1950    8.8940 H   0  0  0  0  0  0  0  0  0  0  0  0
   19.8990   70.0940    4.9720 *   0  0  0  0  0  0  0  0  0  0  0  0
   19.2640   68.9030    4.4870 O   0  0  0  0  0  1  0  0  0  0  0  0
   18.2440   69.0470    3.5830 C   0  0  0  0  0  0  0  0  0  0  0  0
   17.0270   68.4360    3.9370 C   0  0  0  0  0  0  0  0  0  0  0  0
   15.9270   68.5360    3.0690 C   0  0  0  0  0  3  0  0  0  0  0  0
   16.0320   69.2390    1.8700 C   0  0  0  0  0  3  0  0  0  0  0  0
   18.3360   69.7590    2.3840 C   0  0  0  0  0  3  0  0  0  0  0  0
   17.2340   69.8520    1.5310 C   0  0  0  0  0  3  0  0  0  0  0  0
   16.8920   67.6760    5.2260 C   0  0  0  0  0  1  0  0  0  0  0  0
   19.7120   70.8090    9.0840 C   0  0  0  0  0  2  0  0  0  0  0  0
   20.9650   69.9770    9.2860 C   0  0  0  0  0  0  0  0  0  0  0  0
   22.0510   69.9480    8.3760 C   0  0  0  0  0  0  0  0  0  0  0  0
   21.0090   69.1420   10.4240 C   0  0  0  0  0  3  0  0  0  0  0  0
   23.1330   69.0820    8.6440 C   0  0  0  0  0  3  0  0  0  0  0  0
   22.0950   68.3030   10.6710 C   0  0  0  0  0  3  0  0  0  0  0  0
   23.1570   68.2720    9.7770 C   0  0  0  0  0  3  0  0  0  0  0  0
   22.1510   70.7900    7.1130 C   0  0  0  0  0  2  0  0  0  0  0  0
   22.3390   69.9760    5.9140 N   0  0  0  0  0  1  0  0  0  0  0  0
   21.4050   69.7130    5.0580 *   0  0  0  0  0  0  0  0  0  0  0  0
  1  4  1  0  0  0  0
  1 14  1  0  0  0  0
  2  1  1  0  0  0  0
  3  2  2  0  0  0  0
  7  8  1  0  0  0  0
  7  6  1  0  0  0  0
  8 13  1  0  0  0  0
  9  8  2  0  0  0  0
 10  9  1  0  0  0  0
 11  7  2  0  0  0  0
 12 10  2  0  0  0  0
 12 11  1  0  0  0  0
 14 15  1  0  0  0  0
 15 17  1  0  0  0  0
 16 18  1  0  0  0  0
 16 15  2  0  0  0  0
 17 19  2  0  0  0  0
 18 20  2  0  0  0  0
 20 19  1  0  0  0  0
 21 16  1  0  0  0  0
 22 21  1  0  0  0  0
M  END
>  <MODEL>
16

>  <REMARK>
 VINA RESULT:    -5.538      4.395      5.998
 INTER + INTRA:          -6.722
 INTER:                  -7.612
 INTRA:                   0.891
 UNBOUND:                 1.083
 SMILES Cc1ccccc1O[C@@H]1/C=N\Cc2ccccc2CN/C=N/1
 SMILES IDX 20 1 21 2 22 3 9 5 8 7 7 8 2 9 3 10 4 11 6 12 5 13 1 14
 SMILES IDX 19 15 18 16 13 17 17 18 14 19 16 20 15 21 12 22 11 23 10 24
 H PARENT 20 4
 Flexibility Score:   51.900

>  <TORSDO>
F 2

$$$$
research/ai4chem/closed_loop/ipf_cycle1/docking_1vjy/cand_0003_dock.pdbqt
 OpenBabel03012623503D

 23 21  0  0  0  0  0  0  0  0999 V2000
   16.7420   68.4930    2.9930 N   0  0  0  0  0  0  0  0  0  0  0  0
   16.0110   67.6890    3.8220 C   0  0  0  0  0  3  0  0  0  0  0  0
   16.4470   67.2540    4.9460 N   0  0  0  0  0  2  0  0  0  0  0  0
   16.2000   68.8980    2.2360 H   0  0  0  0  0  0  0  0  0  0  0  0
   15.4150   66.7150    5.8280 *   0  0  0  0  0  0  0  0  0  0  0  0
   14.0430   66.8520    5.4330 O   0  0  0  0  0  1  0  0  0  0  0  0
   13.3560   65.7120    5.1060 C   0  0  0  0  0  0  0  0  0  0  0  0
   12.2160   65.4440    5.8840 C   0  0  0  0  0  0  0  0  0  0  0  0
   11.4510   64.2980    5.6150 C   0  0  0  0  0  3  0  0  0  0  0  0
   11.8080   63.4340    4.5820 C   0  0  0  0  0  3  0  0  0  0  0  0
   13.7010   64.8460    4.0640 C   0  0  0  0  0  3  0  0  0  0  0  0
   12.9300   63.7100    3.8060 C   0  0  0  0  0  3  0  0  0  0  0  0
   11.8110   66.3650    7.0010 C   0  0  0  0  0  1  0  0  0  0  0  0
   17.6160   69.4860    3.6090 C   0  0  0  0  0  2  0  0  0  0  0  0
   18.4190   68.8410    4.7240 C   0  0  0  0  0  0  0  0  0  0  0  0
   18.0350   68.8600    6.0870 C   0  0  0  0  0  0  0  0  0  0  0  0
   19.6490   68.2430    4.3720 C   0  0  0  0  0  3  0  0  0  0  0  0
   18.9000   68.2810    7.0410 C   0  0  0  0  0  3  0  0  0  0  0  0
   20.4810   67.6690    5.3320 C   0  0  0  0  0  3  0  0  0  0  0  0
   20.1070   67.6910    6.6680 C   0  0  0  0  0  3  0  0  0  0  0  0
   16.7420   69.4600    6.6200 C   0  0  0  0  0  2  0  0  0  0  0  0
   16.0500   68.5630    7.5430 N   0  0  0  0  0  1  0  0  0  0  0  0
   15.5100   67.4380    7.1990 *   0  0  0  0  0  0  0  0  0  0  0  0
  1 14  1  0  0  0  0
  1  2  1  0  0  0  0
  2  3  2  0  0  0  0
  4  1  1  0  0  0  0
  7  6  1  0  0  0  0
  7  8  1  0  0  0  0
  8 13  1  0  0  0  0
  9  8  2  0  0  0  0
 10  9  1  0  0  0  0
 11  7  2  0  0  0  0
 12 11  1  0  0  0  0
 12 10  2  0  0  0  0
 14 15  1  0  0  0  0
 15 16  1  0  0  0  0
 16 21  1  0  0  0  0
 16 18  2  0  0  0  0
 17 15  2  0  0  0  0
 17 19  1  0  0  0  0
 19 20  2  0  0  0  0
 20 18  1  0  0  0  0
 21 22  1  0  0  0  0
M  END
>  <MODEL>
17

>  <REMARK>
 VINA RESULT:    -5.345      1.123      2.796
 INTER + INTRA:          -6.449
 INTER:                  -9.806
 INTRA:                   3.358
 UNBOUND:                 1.083
 SMILES Cc1ccccc1O[C@@H]1/C=N\Cc2ccccc2CN/C=N/1
 SMILES IDX 20 1 21 2 22 3 9 5 8 7 7 8 2 9 3 10 4 11 6 12 5 13 1 14
 SMILES IDX 19 15 18 16 13 17 17 18 14 19 16 20 15 21 12 22 11 23 10 24
 H PARENT 20 4
 Flexibility Score:   51.900

>  <TORSDO>
F 2

$$$$
research/ai4chem/closed_loop/ipf_cycle1/docking_1vjy/cand_0003_dock.pdbqt
 OpenBabel03012623503D

 23 21  0  0  0  0  0  0  0  0999 V2000
   16.6600   67.7260    5.6170 N   0  0  0  0  0  0  0  0  0  0  0  0
   17.7730   68.2920    5.0620 C   0  0  0  0  0  3  0  0  0  0  0  0
   17.9770   69.5580    5.0260 N   0  0  0  0  0  2  0  0  0  0  0  0
   16.7280   66.7200    5.7320 H   0  0  0  0  0  0  0  0  0  0  0  0
   19.3520   69.9410    4.7180 *   0  0  0  0  0  0  0  0  0  0  0  0
   20.1570   69.0300    3.9580 O   0  0  0  0  0  1  0  0  0  0  0  0
   21.0220   69.5590    3.0350 C   0  0  0  0  0  0  0  0  0  0  0  0
   20.4670   69.8410    1.7730 C   0  0  0  0  0  0  0  0  0  0  0  0
   21.2810   70.3880    0.7680 C   0  0  0  0  0  3  0  0  0  0  0  0
   22.6250   70.6580    1.0150 C   0  0  0  0  0  3  0  0  0  0  0  0
   22.3690   69.8440    3.2760 C   0  0  0  0  0  3  0  0  0  0  0  0
   23.1670   70.3890    2.2680 C   0  0  0  0  0  3  0  0  0  0  0  0
   19.0180   69.5600    1.4880 C   0  0  0  0  0  1  0  0  0  0  0  0
   16.1010   68.3580    6.8090 C   0  0  0  0  0  2  0  0  0  0  0  0
   16.9970   68.0850    8.0030 C   0  0  0  0  0  0  0  0  0  0  0  0
   18.0660   68.9260    8.3970 C   0  0  0  0  0  0  0  0  0  0  0  0
   16.7760   66.8850    8.7150 C   0  0  0  0  0  3  0  0  0  0  0  0
   18.8700   68.5290    9.4880 C   0  0  0  0  0  3  0  0  0  0  0  0
   17.5780   66.5220    9.7960 C   0  0  0  0  0  3  0  0  0  0  0  0
   18.6280   67.3440   10.1810 C   0  0  0  0  0  3  0  0  0  0  0  0
   18.4250   70.2470    7.7340 C   0  0  0  0  0  2  0  0  0  0  0  0
   19.8090   70.2770    7.2640 N   0  0  0  0  0  1  0  0  0  0  0  0
   20.1590   70.1560    6.0250 *   0  0  0  0  0  0  0  0  0  0  0  0
  1  4  1  0  0  0  0
  1 14  1  0  0  0  0
  2  1  1  0  0  0  0
  3  2  2  0  0  0  0
  7 11  1  0  0  0  0
  7  6  1  0  0  0  0
  8  7  2  0  0  0  0
  9 10  2  0  0  0  0
  9  8  1  0  0  0  0
 10 12  1  0  0  0  0
 12 11  2  0  0  0  0
 13  8  1  0  0  0  0
 14 15  1  0  0  0  0
 15 16  2  0  0  0  0
 15 17  1  0  0  0  0
 16 18  1  0  0  0  0
 17 19  2  0  0  0  0
 18 20  2  0  0  0  0
 19 20  1  0  0  0  0
 21 16  1  0  0  0  0
 22 21  1  0  0  0  0
M  END
>  <MODEL>
18

>  <REMARK>
 VINA RESULT:    -5.278      4.257      7.370
 INTER + INTRA:          -6.354
 INTER:                  -7.816
 INTRA:                   1.462
 UNBOUND:                 1.083
 SMILES Cc1ccccc1O[C@@H]1/C=N\Cc2ccccc2CN/C=N/1
 SMILES IDX 20 1 21 2 22 3 9 5 8 7 7 8 2 9 3 10 4 11 6 12 5 13 1 14
 SMILES IDX 19 15 18 16 13 17 17 18 14 19 16 20 15 21 12 22 11 23 10 24
 H PARENT 20 4
 Flexibility Score:   51.900

>  <TORSDO>
F 2

$$$$
research/ai4chem/closed_loop/ipf_cycle1/docking_1vjy/cand_0003_dock.pdbqt
 OpenBabel03012623503D

 23 21  0  0  0  0  0  0  0  0999 V2000
   21.6090   70.8620    8.0990 N   0  0  0  0  0  0  0  0  0  0  0  0
   20.8390   70.4460    7.0500 C   0  0  0  0  0  3  0  0  0  0  0  0
   21.1030   69.4030    6.3520 N   0  0  0  0  0  2  0  0  0  0  0  0
   21.1760   71.5900    8.6600 H   0  0  0  0  0  0  0  0  0  0  0  0
   19.9960   68.9350    5.5210 *   0  0  0  0  0  0  0  0  0  0  0  0
   19.1170   69.9120    4.9470 O   0  0  0  0  0  1  0  0  0  0  0  0
   18.5500   69.6240    3.7330 C   0  0  0  0  0  0  0  0  0  0  0  0
   19.4040   69.7360    2.6200 C   0  0  0  0  0  0  0  0  0  0  0  0
   18.9050   69.4570    1.3380 C   0  0  0  0  0  3  0  0  0  0  0  0
   17.5790   69.0640    1.1630 C   0  0  0  0  0  3  0  0  0  0  0  0
   17.2240   69.2200    3.5490 C   0  0  0  0  0  3  0  0  0  0  0  0
   16.7420   68.9430    2.2670 C   0  0  0  0  0  3  0  0  0  0  0  0
   20.8380   70.1530    2.7880 C   0  0  0  0  0  1  0  0  0  0  0  0
   22.2190   69.8370    8.9410 C   0  0  0  0  0  2  0  0  0  0  0  0
   21.1740   69.2490    9.8710 C   0  0  0  0  0  0  0  0  0  0  0  0
   20.3520   68.1440    9.5380 C   0  0  0  0  0  0  0  0  0  0  0  0
   20.9820   69.8900   11.1150 C   0  0  0  0  0  3  0  0  0  0  0  0
   19.3700   67.7300   10.4640 C   0  0  0  0  0  3  0  0  0  0  0  0
   20.0120   69.4540   12.0160 C   0  0  0  0  0  3  0  0  0  0  0  0
   19.2030   68.3740   11.6880 C   0  0  0  0  0  3  0  0  0  0  0  0
   20.4420   67.3500    8.2430 C   0  0  0  0  0  2  0  0  0  0  0  0
   19.1990   67.3920    7.4750 N   0  0  0  0  0  1  0  0  0  0  0  0
   19.0510   68.0380    6.3650 *   0  0  0  0  0  0  0  0  0  0  0  0
  1  4  1  0  0  0  0
  1 14  1  0  0  0  0
  2  1  1  0  0  0  0
  3  2  2  0  0  0  0
  7  6  1  0  0  0  0
  8 13  1  0  0  0  0
  8  7  2  0  0  0  0
  9  8  1  0  0  0  0
 10  9  2  0  0  0  0
 10 12  1  0  0  0  0
 11  7  1  0  0  0  0
 12 11  2  0  0  0  0
 14 15  1  0  0  0  0
 15 17  1  0  0  0  0
 16 15  2  0  0  0  0
 16 18  1  0  0  0  0
 17 19  2  0  0  0  0
 18 20  2  0  0  0  0
 20 19  1  0  0  0  0
 21 16  1  0  0  0  0
 22 21  1  0  0  0  0
M  END
>  <MODEL>
19

>  <REMARK>
 VINA RESULT:    -5.179      4.802      6.529
 INTER + INTRA:          -6.216
 INTER:                  -7.965
 INTRA:                   1.749
 UNBOUND:                 1.083
 SMILES Cc1ccccc1O[C@@H]1/C=N\Cc2ccccc2CN/C=N/1
 SMILES IDX 20 1 21 2 22 3 9 5 8 7 7 8 2 9 3 10 4 11 6 12 5 13 1 14
 SMILES IDX 19 15 18 16 13 17 17 18 14 19 16 20 15 21 12 22 11 23 10 24
 H PARENT 20 4
 Flexibility Score:   51.900

>  <TORSDO>
F 2

$$$$
research/ai4chem/closed_loop/ipf_cycle1/docking_1vjy/cand_0003_dock.pdbqt
 OpenBabel03012623503D

 23 21  0  0  0  0  0  0  0  0999 V2000
   20.0100   68.1050    7.7560 N   0  0  0  0  0  0  0  0  0  0  0  0
   20.0440   68.4340    6.4300 C   0  0  0  0  0  3  0  0  0  0  0  0
   19.5600   67.6870    5.5060 N   0  0  0  0  0  2  0  0  0  0  0  0
   20.2640   68.8700    8.3730 H   0  0  0  0  0  0  0  0  0  0  0  0
   19.3800   68.3560    4.2210 *   0  0  0  0  0  0  0  0  0  0  0  0
   19.8330   69.7110    4.0890 O   0  0  0  0  0  1  0  0  0  0  0  0
   20.8910   69.9520    3.2520 C   0  0  0  0  0  0  0  0  0  0  0  0
   22.0410   70.4860    3.8620 C   0  0  0  0  0  0  0  0  0  0  0  0
   23.1730   70.7610    3.0790 C   0  0  0  0  0  3  0  0  0  0  0  0
   23.1670   70.5010    1.7090 C   0  0  0  0  0  3  0  0  0  0  0  0
   20.8980   69.6850    1.8800 C   0  0  0  0  0  3  0  0  0  0  0  0
   22.0320   69.9610    1.1120 C   0  0  0  0  0  3  0  0  0  0  0  0
   22.0700   70.7700    5.3380 C   0  0  0  0  0  1  0  0  0  0  0  0
   18.8320   67.3980    8.2490 C   0  0  0  0  0  2  0  0  0  0  0  0
   17.6060   68.2810    8.1070 C   0  0  0  0  0  0  0  0  0  0  0  0
   16.7350   68.2510    6.9910 C   0  0  0  0  0  0  0  0  0  0  0  0
   17.3690   69.2250    9.1300 C   0  0  0  0  0  3  0  0  0  0  0  0
   15.6640   69.1700    6.9450 C   0  0  0  0  0  3  0  0  0  0  0  0
   16.2970   70.1150    9.0650 C   0  0  0  0  0  3  0  0  0  0  0  0
   15.4460   70.0890    7.9700 C   0  0  0  0  0  3  0  0  0  0  0  0
   16.8570   67.2910    5.8160 C   0  0  0  0  0  2  0  0  0  0  0  0
   16.8150   67.9790    4.5270 N   0  0  0  0  0  1  0  0  0  0  0  0
   17.8600   68.4100    3.8970 *   0  0  0  0  0  0  0  0  0  0  0  0
  1 14  1  0  0  0  0
  1  4  1  0  0  0  0
  2  1  1  0  0  0  0
  3  2  2  0  0  0  0
  7  8  1  0  0  0  0
  7  6  1  0  0  0  0
  8 13  1  0  0  0  0
  9  8  2  0  0  0  0
 10  9  1  0  0  0  0
 11  7  2  0  0  0  0
 12 10  2  0  0  0  0
 12 11  1  0  0  0  0
 15 14  1  0  0  0  0
 15 17  1  0  0  0  0
 16 15  2  0  0  0  0
 18 16  1  0  0  0  0
 18 20  2  0  0  0  0
 19 17  2  0  0  0  0
 20 19  1  0  0  0  0
 21 16  1  0  0  0  0
 22 21  1  0  0  0  0
M  END
>  <MODEL>
20

>  <REMARK>
 VINA RESULT:    -5.166      3.958      7.421
 INTER + INTRA:          -6.197
 INTER:                  -7.415
 INTRA:                   1.219
 UNBOUND:                 1.083
 SMILES Cc1ccccc1O[C@@H]1/C=N\Cc2ccccc2CN/C=N/1
 SMILES IDX 20 1 21 2 22 3 9 5 8 7 7 8 2 9 3 10 4 11 6 12 5 13 1 14
 SMILES IDX 19 15 18 16 13 17 17 18 14 19 16 20 15 21 12 22 11 23 10 24
 H PARENT 20 4
 Flexibility Score:   51.900

>  <TORSDO>
F 2

$$$$
