research/ai4chem/closed_loop/ipf_cycle1/docking_1vjy/cand_0004_dock.pdbqt
 OpenBabel03012623503D

 22 22  0  0  1  0  0  0  0  0999 V2000
   17.1310   68.7650    3.4000 C   0  0  0  0  0  3  0  0  0  0  0  0
   16.7110   67.8870    4.3190 C   0  0  0  0  0  3  0  0  0  0  0  0
   18.4570   69.0530    3.2240 N   0  0  0  0  0  0  0  0  0  0  0  0
   18.9880   69.5830    2.0640 C   0  0  0  0  0  0  0  0  0  0  0  0
   18.3870   69.8810    1.0400 O   0  0  0  0  0  0  0  0  0  0  0  0
   19.1270   68.8620    3.9660 H   0  0  0  0  0  0  0  0  0  0  0  0
   20.5140   69.7910    2.1490 C   0  0  0  0  0  0  0  0  0  0  0  0
   21.0420   70.4640    1.0700 N   0  0  0  0  0  0  0  0  0  0  0  0
   21.1340   69.3630    3.1130 O   0  0  0  0  0  0  0  0  0  0  0  0
   22.4560   70.6510    0.8990 C   0  0  0  0  0  1  0  0  0  0  0  0
   20.4010   70.6660    0.3070 H   0  0  0  0  0  0  0  0  0  0  0  0
   15.2770   67.5280    4.5540 C   0  0  1  0  0  3  0  0  0  0  0  0
   14.5260   67.7570    3.4420 F   0  0  0  0  0  0  0  0  0  0  0  0
   15.2080   66.1030    4.7870 N   0  0  0  0  0  0  0  0  0  0  0  0
   15.8010   65.6400    4.1060 H   0  0  0  0  0  0  0  0  0  0  0  0
   13.9790   65.4640    4.9570 C   0  0  0  0  0  0  0  0  0  0  0  0
   13.4850   64.4920    4.0750 C   0  0  0  0  0  3  0  0  0  0  0  0
   13.1220   65.9220    5.9720 C   0  0  0  0  0  3  0  0  0  0  0  0
   12.2110   63.9400    4.2490 C   0  0  0  0  0  3  0  0  0  0  0  0
   11.8490   65.3740    6.1510 C   0  0  0  0  0  3  0  0  0  0  0  0
   11.4070   64.3810    5.2900 C   0  0  0  0  0  0  0  0  0  0  0  0
   10.1870   63.8550    5.4540 F   0  0  0  0  0  0  0  0  0  0  0  0
  1  2  2  0  0  0  0
  2 12  1  0  0  0  0
  3  1  1  0  0  0  0
  3  6  1  0  0  0  0
  4  7  1  0  0  0  0
  4  3  1  0  0  0  0
  5  4  2  0  0  0  0
  7  9  2  0  0  0  0
  8  7  1  0  0  0  0
 10  8  1  0  0  0  0
 11  8  1  0  0  0  0
 12 13  1  6  0  0  0
 12 14  1  0  0  0  0
 14 16  1  0  0  0  0
 15 14  1  0  0  0  0
 16 18  1  0  0  0  0
 17 19  1  0  0  0  0
 17 16  2  0  0  0  0
 18 20  2  0  0  0  0
 19 21  2  0  0  0  0
 21 22  1  0  0  0  0
 21 20  1  0  0  0  0
M  END
>  <MODEL>
1

>  <REMARK>
 VINA RESULT:    -8.166      0.000      0.000
 INTER + INTRA:         -11.027
 INTER:                 -10.553
 INTRA:                  -0.473
 UNBOUND:                -0.473
 SMILES CNC(=O)C(=O)N/C=C/[C@@H](F)Nc1ccc(F)cc1
 SMILES IDX 8 1 9 2 7 3 5 4 6 5 3 7 2 8 4 9 1 10 10 12 11 13 12 14 13 16
 SMILES IDX 14 17 19 18 15 19 18 20 16 21 17 22
 H PARENT 7 6 2 11 12 15

>  <TORSDO>
F 5

$$$$
research/ai4chem/closed_loop/ipf_cycle1/docking_1vjy/cand_0004_dock.pdbqt
 OpenBabel03012623503D

 22 22  0  0  1  0  0  0  0  0999 V2000
   17.2050   68.8880    3.4370 C   0  0  0  0  0  3  0  0  0  0  0  0
   16.7580   68.0410    4.3720 C   0  0  0  0  0  3  0  0  0  0  0  0
   18.5400   69.1180    3.2430 N   0  0  0  0  0  0  0  0  0  0  0  0
   19.0830   69.5930    2.0660 C   0  0  0  0  0  0  0  0  0  0  0  0
   18.4870   69.8840    1.0370 O   0  0  0  0  0  0  0  0  0  0  0  0
   19.2070   68.9220    3.9870 H   0  0  0  0  0  0  0  0  0  0  0  0
   20.6170   69.7420    2.1350 C   0  0  0  0  0  0  0  0  0  0  0  0
   21.1500   70.4660    1.0930 N   0  0  0  0  0  0  0  0  0  0  0  0
   21.2370   69.2310    3.0570 O   0  0  0  0  0  0  0  0  0  0  0  0
   22.5670   70.6160    0.9070 C   0  0  0  0  0  1  0  0  0  0  0  0
   20.5040   70.7410    0.3570 H   0  0  0  0  0  0  0  0  0  0  0  0
   15.3130   67.7460    4.6250 C   0  0  1  0  0  3  0  0  0  0  0  0
   14.5630   67.9800    3.5140 F   0  0  0  0  0  0  0  0  0  0  0  0
   15.1880   66.3310    4.8920 N   0  0  0  0  0  0  0  0  0  0  0  0
   15.8060   65.8330    4.2590 H   0  0  0  0  0  0  0  0  0  0  0  0
   13.9330   65.7310    5.0060 C   0  0  0  0  0  0  0  0  0  0  0  0
   13.0350   66.0080    6.0460 C   0  0  0  0  0  3  0  0  0  0  0  0
   13.6110   64.6850    4.1240 C   0  0  0  0  0  3  0  0  0  0  0  0
   11.8210   65.3190    6.1550 C   0  0  0  0  0  3  0  0  0  0  0  0
   12.4000   63.9940    4.2280 C   0  0  0  0  0  3  0  0  0  0  0  0
   11.5130   64.3230    5.2410 C   0  0  0  0  0  0  0  0  0  0  0  0
   10.3540   63.6610    5.3480 F   0  0  0  0  0  0  0  0  0  0  0  0
  1  2  2  0  0  0  0
  2 12  1  0  0  0  0
  3  1  1  0  0  0  0
  3  6  1  0  0  0  0
  4  7  1  0  0  0  0
  4  3  1  0  0  0  0
  5  4  2  0  0  0  0
  7  9  2  0  0  0  0
  8  7  1  0  0  0  0
 10  8  1  0  0  0  0
 11  8  1  0  0  0  0
 12 13  1  6  0  0  0
 12 14  1  0  0  0  0
 14 16  1  0  0  0  0
 15 14  1  0  0  0  0
 16 17  1  0  0  0  0
 17 19  2  0  0  0  0
 18 20  1  0  0  0  0
 18 16  2  0  0  0  0
 20 21  2  0  0  0  0
 21 22  1  0  0  0  0
 21 19  1  0  0  0  0
M  END
>  <MODEL>
2

>  <REMARK>
 VINA RESULT:    -8.016      0.180      1.116
 INTER + INTRA:         -10.833
 INTER:                 -10.384
 INTRA:                  -0.449
 UNBOUND:                -0.473
 SMILES CNC(=O)C(=O)N/C=C/[C@@H](F)Nc1ccc(F)cc1
 SMILES IDX 8 1 9 2 7 3 5 4 6 5 3 7 2 8 4 9 1 10 10 12 11 13 12 14 13 16
 SMILES IDX 14 17 19 18 15 19 18 20 16 21 17 22
 H PARENT 7 6 2 11 12 15

>  <TORSDO>
F 5

$$$$
research/ai4chem/closed_loop/ipf_cycle1/docking_1vjy/cand_0004_dock.pdbqt
 OpenBabel03012623503D

 22 22  0  0  1  0  0  0  0  0999 V2000
   15.8230   67.3680    7.1990 C   0  0  0  0  0  3  0  0  0  0  0  0
   16.0730   67.4110    5.8850 C   0  0  0  0  0  3  0  0  0  0  0  0
   16.7990   67.5960    8.1320 N   0  0  0  0  0  0  0  0  0  0  0  0
   17.3120   68.8420    8.4290 C   0  0  0  0  0  0  0  0  0  0  0  0
   16.9910   69.9150    7.9350 O   0  0  0  0  0  0  0  0  0  0  0  0
   17.2080   66.8180    8.6460 H   0  0  0  0  0  0  0  0  0  0  0  0
   18.4100   68.7910    9.5120 C   0  0  0  0  0  0  0  0  0  0  0  0
   17.9190   68.7520   10.7970 N   0  0  0  0  0  0  0  0  0  0  0  0
   19.5890   68.7960    9.1850 O   0  0  0  0  0  0  0  0  0  0  0  0
   18.7740   68.8240   11.9490 C   0  0  0  0  0  1  0  0  0  0  0  0
   16.9110   68.8510   10.8980 H   0  0  0  0  0  0  0  0  0  0  0  0
   15.0480   67.1770    4.8210 C   0  0  1  0  0  3  0  0  0  0  0  0
   15.4980   67.5920    3.6050 F   0  0  0  0  0  0  0  0  0  0  0  0
   14.8500   65.7500    4.6990 N   0  0  0  0  0  0  0  0  0  0  0  0
   15.3340   65.4330    3.8640 H   0  0  0  0  0  0  0  0  0  0  0  0
   13.5800   65.1880    4.8340 C   0  0  0  0  0  0  0  0  0  0  0  0
   13.0360   64.2770    3.9180 C   0  0  0  0  0  3  0  0  0  0  0  0
   12.7420   65.6700    5.8530 C   0  0  0  0  0  3  0  0  0  0  0  0
   11.7260   63.8050    4.0600 C   0  0  0  0  0  3  0  0  0  0  0  0
   11.4330   65.2020    6.0010 C   0  0  0  0  0  3  0  0  0  0  0  0
   10.9390   64.2660    5.1040 C   0  0  0  0  0  0  0  0  0  0  0  0
    9.6850   63.8180    5.2380 F   0  0  0  0  0  0  0  0  0  0  0  0
  1  3  1  0  0  0  0
  2  1  2  0  0  0  0
  3  4  1  0  0  0  0
  3  6  1  0  0  0  0
  4  7  1  0  0  0  0
  5  4  2  0  0  0  0
  7  8  1  0  0  0  0
  8 11  1  0  0  0  0
  8 10  1  0  0  0  0
  9  7  2  0  0  0  0
 12 13  1  6  0  0  0
 12  2  1  0  0  0  0
 14 12  1  0  0  0  0
 14 16  1  0  0  0  0
 15 14  1  0  0  0  0
 16 18  1  0  0  0  0
 17 19  1  0  0  0  0
 17 16  2  0  0  0  0
 18 20  2  0  0  0  0
 19 21  2  0  0  0  0
 21 22  1  0  0  0  0
 21 20  1  0  0  0  0
M  END
>  <MODEL>
3

>  <REMARK>
 VINA RESULT:    -7.938      4.276      5.091
 INTER + INTRA:         -10.732
 INTER:                 -10.254
 INTRA:                  -0.478
 UNBOUND:                -0.473
 SMILES CNC(=O)C(=O)N/C=C/[C@@H](F)Nc1ccc(F)cc1
 SMILES IDX 8 1 9 2 7 3 5 4 6 5 3 7 2 8 4 9 1 10 10 12 11 13 12 14 13 16
 SMILES IDX 14 17 19 18 15 19 18 20 16 21 17 22
 H PARENT 7 6 2 11 12 15

>  <TORSDO>
F 5

$$$$
research/ai4chem/closed_loop/ipf_cycle1/docking_1vjy/cand_0004_dock.pdbqt
 OpenBabel03012623503D

 22 22  0  0  1  0  0  0  0  0999 V2000
   15.6600   66.8890    4.7960 C   0  0  0  0  0  3  0  0  0  0  0  0
   15.7880   67.9750    5.5680 C   0  0  0  0  0  3  0  0  0  0  0  0
   14.4750   66.2120    4.6850 N   0  0  0  0  0  0  0  0  0  0  0  0
   14.3550   64.9430    4.1560 C   0  0  0  0  0  0  0  0  0  0  0  0
   15.2500   64.2310    3.7200 O   0  0  0  0  0  0  0  0  0  0  0  0
   13.6060   66.6480    4.9850 H   0  0  0  0  0  0  0  0  0  0  0  0
   12.8960   64.4380    4.1470 C   0  0  0  0  0  0  0  0  0  0  0  0
   12.2120   64.7030    5.3110 N   0  0  0  0  0  0  0  0  0  0  0  0
   12.4590   63.8590    3.1620 O   0  0  0  0  0  0  0  0  0  0  0  0
   10.8840   64.2100    5.5500 C   0  0  0  0  0  1  0  0  0  0  0  0
   12.7530   65.1110    6.0700 H   0  0  0  0  0  0  0  0  0  0  0  0
   17.0540   68.7580    5.7230 C   0  0  1  0  0  3  0  0  0  0  0  0
   17.4640   68.7740    7.0210 F   0  0  0  0  0  0  0  0  0  0  0  0
   18.0950   68.0710    4.9920 N   0  0  0  0  0  0  0  0  0  0  0  0
   18.7270   67.6460    5.6630 H   0  0  0  0  0  0  0  0  0  0  0  0
   18.7640   68.6970    3.9400 C   0  0  0  0  0  0  0  0  0  0  0  0
   18.1870   68.9250    2.6830 C   0  0  0  0  0  3  0  0  0  0  0  0
   20.1330   68.9770    4.0910 C   0  0  0  0  0  3  0  0  0  0  0  0
   18.9300   69.4870    1.6380 C   0  0  0  0  0  3  0  0  0  0  0  0
   20.8800   69.5380    3.0520 C   0  0  0  0  0  3  0  0  0  0  0  0
   20.2680   69.7940    1.8340 C   0  0  0  0  0  0  0  0  0  0  0  0
   20.9790   70.3270    0.8340 F   0  0  0  0  0  0  0  0  0  0  0  0
  1  2  2  0  0  0  0
  2 12  1  0  0  0  0
  3  1  1  0  0  0  0
  3  6  1  0  0  0  0
  4  3  1  0  0  0  0
  5  4  2  0  0  0  0
  7  4  1  0  0  0  0
  7  8  1  0  0  0  0
  8 10  1  0  0  0  0
  8 11  1  0  0  0  0
  9  7  2  0  0  0  0
 12 13  1  1  0  0  0
 14 15  1  0  0  0  0
 14 12  1  0  0  0  0
 16 18  1  0  0  0  0
 16 14  1  0  0  0  0
 17 16  2  0  0  0  0
 19 21  2  0  0  0  0
 19 17  1  0  0  0  0
 20 18  2  0  0  0  0
 21 20  1  0  0  0  0
 22 21  1  0  0  0  0
M  END
>  <MODEL>
4

>  <REMARK>
 VINA RESULT:    -7.893      3.763      8.355
 INTER + INTRA:         -10.673
 INTER:                 -10.144
 INTRA:                  -0.529
 UNBOUND:                -0.473
 SMILES CNC(=O)C(=O)N/C=C/[C@@H](F)Nc1ccc(F)cc1
 SMILES IDX 8 1 9 2 7 3 5 4 6 5 3 7 2 8 4 9 1 10 10 12 11 13 12 14 13 16
 SMILES IDX 14 17 19 18 15 19 18 20 16 21 17 22
 H PARENT 7 6 2 11 12 15

>  <TORSDO>
F 5

$$$$
research/ai4chem/closed_loop/ipf_cycle1/docking_1vjy/cand_0004_dock.pdbqt
 OpenBabel03012623503D

 22 22  0  0  1  0  0  0  0  0999 V2000
   15.6340   67.0400    4.4840 C   0  0  0  0  0  3  0  0  0  0  0  0
   15.8810   67.9550    5.4300 C   0  0  0  0  0  3  0  0  0  0  0  0
   14.4700   66.3190    4.4580 N   0  0  0  0  0  0  0  0  0  0  0  0
   14.3880   64.9950    4.0760 C   0  0  0  0  0  0  0  0  0  0  0  0
   15.3040   64.2660    3.7170 O   0  0  0  0  0  0  0  0  0  0  0  0
   13.5880   66.7590    4.7120 H   0  0  0  0  0  0  0  0  0  0  0  0
   12.9460   64.4480    4.1320 C   0  0  0  0  0  0  0  0  0  0  0  0
   12.2970   64.7180    5.3150 N   0  0  0  0  0  0  0  0  0  0  0  0
   12.4910   63.8330    3.1770 O   0  0  0  0  0  0  0  0  0  0  0  0
   10.9940   64.1920    5.6140 C   0  0  0  0  0  1  0  0  0  0  0  0
   12.8540   65.1590    6.0440 H   0  0  0  0  0  0  0  0  0  0  0  0
   17.1290   68.7760    5.5070 C   0  0  1  0  0  3  0  0  0  0  0  0
   17.5020   68.9810    6.8000 F   0  0  0  0  0  0  0  0  0  0  0  0
   18.2000   68.0140    4.9060 N   0  0  0  0  0  0  0  0  0  0  0  0
   18.7550   67.6030    5.6500 H   0  0  0  0  0  0  0  0  0  0  0  0
   18.9830   68.5590    3.8870 C   0  0  0  0  0  0  0  0  0  0  0  0
   20.3290   68.9160    4.0530 C   0  0  0  0  0  3  0  0  0  0  0  0
   18.3570   68.9130    2.6800 C   0  0  0  0  0  3  0  0  0  0  0  0
   21.0460   69.5320    3.0210 C   0  0  0  0  0  3  0  0  0  0  0  0
   19.0680   69.5280    1.6450 C   0  0  0  0  0  3  0  0  0  0  0  0
   20.4100   69.8260    1.8240 C   0  0  0  0  0  0  0  0  0  0  0  0
   21.0950   70.4190    0.8380 F   0  0  0  0  0  0  0  0  0  0  0  0
  1  2  2  0  0  0  0
  2 12  1  0  0  0  0
  3  1  1  0  0  0  0
  3  6  1  0  0  0  0
  4  7  1  0  0  0  0
  4  3  1  0  0  0  0
  5  4  2  0  0  0  0
  7  8  1  0  0  0  0
  8 10  1  0  0  0  0
  8 11  1  0  0  0  0
  9  7  2  0  0  0  0
 12 13  1  1  0  0  0
 14 12  1  0  0  0  0
 14 15  1  0  0  0  0
 16 17  1  0  0  0  0
 16 14  1  0  0  0  0
 18 16  2  0  0  0  0
 19 17  2  0  0  0  0
 20 21  2  0  0  0  0
 20 18  1  0  0  0  0
 21 19  1  0  0  0  0
 22 21  1  0  0  0  0
M  END
>  <MODEL>
5

>  <REMARK>
 VINA RESULT:    -7.872      3.743      8.403
 INTER + INTRA:         -10.646
 INTER:                 -10.105
 INTRA:                  -0.541
 UNBOUND:                -0.473
 SMILES CNC(=O)C(=O)N/C=C/[C@@H](F)Nc1ccc(F)cc1
 SMILES IDX 8 1 9 2 7 3 5 4 6 5 3 7 2 8 4 9 1 10 10 12 11 13 12 14 13 16
 SMILES IDX 14 17 19 18 15 19 18 20 16 21 17 22
 H PARENT 7 6 2 11 12 15

>  <TORSDO>
F 5

$$$$
research/ai4chem/closed_loop/ipf_cycle1/docking_1vjy/cand_0004_dock.pdbqt
 OpenBabel03012623503D

 22 22  0  0  1  0  0  0  0  0999 V2000
   16.2140   67.6140    7.5500 C   0  0  0  0  0  3  0  0  0  0  0  0
   16.2450   67.6510    6.2120 C   0  0  0  0  0  3  0  0  0  0  0  0
   17.3210   67.8780    8.3100 N   0  0  0  0  0  0  0  0  0  0  0  0
   17.8750   66.9880    9.2080 C   0  0  0  0  0  0  0  0  0  0  0  0
   17.4920   65.8550    9.4640 O   0  0  0  0  0  0  0  0  0  0  0  0
   17.7820   68.7840    8.2480 H   0  0  0  0  0  0  0  0  0  0  0  0
   19.1110   67.5640    9.9320 C   0  0  0  0  0  0  0  0  0  0  0  0
   18.8000   68.4580   10.9310 N   0  0  0  0  0  0  0  0  0  0  0  0
   20.2330   67.2170    9.5900 O   0  0  0  0  0  0  0  0  0  0  0  0
   19.8070   69.1970   11.6410 C   0  0  0  0  0  1  0  0  0  0  0  0
   17.8180   68.7090   11.0230 H   0  0  0  0  0  0  0  0  0  0  0  0
   15.0670   67.3780    5.3310 C   0  0  1  0  0  3  0  0  0  0  0  0
   15.2730   67.8570    4.0740 F   0  0  0  0  0  0  0  0  0  0  0  0
   14.9410   65.9450    5.1890 N   0  0  0  0  0  0  0  0  0  0  0  0
   15.5470   65.6470    4.4310 H   0  0  0  0  0  0  0  0  0  0  0  0
   13.6860   65.3360    5.1480 C   0  0  0  0  0  0  0  0  0  0  0  0
   13.2900   64.4470    4.1390 C   0  0  0  0  0  3  0  0  0  0  0  0
   12.7140   65.7480    6.0750 C   0  0  0  0  0  3  0  0  0  0  0  0
   11.9920   63.9260    4.1040 C   0  0  0  0  0  3  0  0  0  0  0  0
   11.4150   65.2300    6.0460 C   0  0  0  0  0  3  0  0  0  0  0  0
   11.0690   64.3170    5.0620 C   0  0  0  0  0  0  0  0  0  0  0  0
    9.8250   63.8220    5.0250 F   0  0  0  0  0  0  0  0  0  0  0  0
  1  3  1  0  0  0  0
  2  1  2  0  0  0  0
  3  4  1  0  0  0  0
  4  5  2  0  0  0  0
  4  7  1  0  0  0  0
  6  3  1  0  0  0  0
  7  8  1  0  0  0  0
  8 11  1  0  0  0  0
  8 10  1  0  0  0  0
  9  7  2  0  0  0  0
 12 13  1  6  0  0  0
 12  2  1  0  0  0  0
 14 12  1  0  0  0  0
 15 14  1  0  0  0  0
 16 14  1  0  0  0  0
 16 18  1  0  0  0  0
 17 16  2  0  0  0  0
 19 17  1  0  0  0  0
 19 21  2  0  0  0  0
 20 18  2  0  0  0  0
 21 20  1  0  0  0  0
 22 21  1  0  0  0  0
M  END
>  <MODEL>
6

>  <REMARK>
 VINA RESULT:    -7.797      4.532      5.368
 INTER + INTRA:         -10.550
 INTER:                 -10.043
 INTRA:                  -0.507
 UNBOUND:                -0.473
 SMILES CNC(=O)C(=O)N/C=C/[C@@H](F)Nc1ccc(F)cc1
 SMILES IDX 8 1 9 2 7 3 5 4 6 5 3 7 2 8 4 9 1 10 10 12 11 13 12 14 13 16
 SMILES IDX 14 17 19 18 15 19 18 20 16 21 17 22
 H PARENT 7 6 2 11 12 15

>  <TORSDO>
F 5

$$$$
research/ai4chem/closed_loop/ipf_cycle1/docking_1vjy/cand_0004_dock.pdbqt
 OpenBabel03012623503D

 22 22  0  0  1  0  0  0  0  0999 V2000
   16.6260   67.7620    7.3910 C   0  0  0  0  0  3  0  0  0  0  0  0
   16.3500   68.0920    6.1230 C   0  0  0  0  0  3  0  0  0  0  0  0
   17.7990   68.1250    7.9960 N   0  0  0  0  0  0  0  0  0  0  0  0
   18.4220   67.3870    8.9840 C   0  0  0  0  0  0  0  0  0  0  0  0
   18.0520   66.3230    9.4620 O   0  0  0  0  0  0  0  0  0  0  0  0
   18.2610   68.9950    7.7400 H   0  0  0  0  0  0  0  0  0  0  0  0
   19.7220   68.0480    9.4890 C   0  0  0  0  0  0  0  0  0  0  0  0
   19.6880   69.4230    9.4690 N   0  0  0  0  0  0  0  0  0  0  0  0
   20.6580   67.3490    9.8520 O   0  0  0  0  0  0  0  0  0  0  0  0
   20.8380   70.2250    9.7840 C   0  0  0  0  0  1  0  0  0  0  0  0
   18.8650   69.8480    9.0480 H   0  0  0  0  0  0  0  0  0  0  0  0
   15.0850   67.7280    5.4110 C   0  0  1  0  0  3  0  0  0  0  0  0
   15.1560   68.0480    4.0900 F   0  0  0  0  0  0  0  0  0  0  0  0
   14.9450   66.2910    5.4600 N   0  0  0  0  0  0  0  0  0  0  0  0
   15.6490   65.8820    4.8530 H   0  0  0  0  0  0  0  0  0  0  0  0
   13.6940   65.6870    5.3170 C   0  0  0  0  0  0  0  0  0  0  0  0
   12.6190   65.9220    6.1860 C   0  0  0  0  0  3  0  0  0  0  0  0
   13.5460   64.6790    4.3490 C   0  0  0  0  0  3  0  0  0  0  0  0
   11.4110   65.2290    6.0430 C   0  0  0  0  0  3  0  0  0  0  0  0
   12.3410   63.9850    4.2020 C   0  0  0  0  0  3  0  0  0  0  0  0
   11.2810   64.2730    5.0480 C   0  0  0  0  0  0  0  0  0  0  0  0
   10.1270   63.6080    4.9140 F   0  0  0  0  0  0  0  0  0  0  0  0
  1  3  1  0  0  0  0
  2  1  2  0  0  0  0
  3  4  1  0  0  0  0
  4  5  2  0  0  0  0
  4  7  1  0  0  0  0
  6  3  1  0  0  0  0
  7  9  2  0  0  0  0
  8  7  1  0  0  0  0
  8 10  1  0  0  0  0
 11  8  1  0  0  0  0
 12 13  1  6  0  0  0
 12 14  1  0  0  0  0
 12  2  1  0  0  0  0
 15 14  1  0  0  0  0
 16 14  1  0  0  0  0
 16 17  1  0  0  0  0
 18 16  2  0  0  0  0
 19 17  2  0  0  0  0
 20 18  1  0  0  0  0
 20 21  2  0  0  0  0
 21 19  1  0  0  0  0
 22 21  1  0  0  0  0
M  END
>  <MODEL>
7

>  <REMARK>
 VINA RESULT:    -7.703      4.411      4.973
 INTER + INTRA:         -10.428
 INTER:                  -9.943
 INTRA:                  -0.485
 UNBOUND:                -0.473
 SMILES CNC(=O)C(=O)N/C=C/[C@@H](F)Nc1ccc(F)cc1
 SMILES IDX 8 1 9 2 7 3 5 4 6 5 3 7 2 8 4 9 1 10 10 12 11 13 12 14 13 16
 SMILES IDX 14 17 19 18 15 19 18 20 16 21 17 22
 H PARENT 7 6 2 11 12 15

>  <TORSDO>
F 5

$$$$
research/ai4chem/closed_loop/ipf_cycle1/docking_1vjy/cand_0004_dock.pdbqt
 OpenBabel03012623503D

 22 22  0  0  1  0  0  0  0  0999 V2000
   16.6740   68.6000    6.1500 C   0  0  0  0  0  3  0  0  0  0  0  0
   16.4900   67.6800    5.1950 C   0  0  0  0  0  3  0  0  0  0  0  0
   17.9210   68.9280    6.6110 N   0  0  0  0  0  0  0  0  0  0  0  0
   18.2220   69.1460    7.9410 C   0  0  0  0  0  0  0  0  0  0  0  0
   17.4600   69.0790    8.8960 O   0  0  0  0  0  0  0  0  0  0  0  0
   18.6950   69.0440    5.9600 H   0  0  0  0  0  0  0  0  0  0  0  0
   19.7040   69.5130    8.1630 C   0  0  0  0  0  0  0  0  0  0  0  0
   19.9290   70.2410    9.3090 N   0  0  0  0  0  0  0  0  0  0  0  0
   20.5470   69.1610    7.3490 O   0  0  0  0  0  0  0  0  0  0  0  0
   21.2190   70.7850    9.6330 C   0  0  0  0  0  1  0  0  0  0  0  0
   19.1040   70.5320    9.8270 H   0  0  0  0  0  0  0  0  0  0  0  0
   15.1550   67.2850    4.6480 C   0  0  1  0  0  3  0  0  0  0  0  0
   15.0680   67.5610    3.3180 F   0  0  0  0  0  0  0  0  0  0  0  0
   15.0360   65.8480    4.7590 N   0  0  0  0  0  0  0  0  0  0  0  0
   15.6240   65.4250    4.0460 H   0  0  0  0  0  0  0  0  0  0  0  0
   13.7860   65.2380    4.8590 C   0  0  0  0  0  0  0  0  0  0  0  0
   13.2910   64.3270    3.9150 C   0  0  0  0  0  3  0  0  0  0  0  0
   12.9120   65.6690    5.8720 C   0  0  0  0  0  3  0  0  0  0  0  0
   11.9970   63.8050    4.0240 C   0  0  0  0  0  3  0  0  0  0  0  0
   11.6190   65.1500    5.9860 C   0  0  0  0  0  3  0  0  0  0  0  0
   11.1760   64.2160    5.0620 C   0  0  0  0  0  0  0  0  0  0  0  0
    9.9370   63.7190    5.1640 F   0  0  0  0  0  0  0  0  0  0  0  0
  1  3  1  0  0  0  0
  2  1  2  0  0  0  0
  3  4  1  0  0  0  0
  4  7  1  0  0  0  0
  4  5  2  0  0  0  0
  6  3  1  0  0  0  0
  7  8  1  0  0  0  0
  8 10  1  0  0  0  0
  8 11  1  0  0  0  0
  9  7  2  0  0  0  0
 12 13  1  6  0  0  0
 12 14  1  0  0  0  0
 12  2  1  0  0  0  0
 14 16  1  0  0  0  0
 15 14  1  0  0  0  0
 16 18  1  0  0  0  0
 17 19  1  0  0  0  0
 17 16  2  0  0  0  0
 18 20  2  0  0  0  0
 19 21  2  0  0  0  0
 21 22  1  0  0  0  0
 21 20  1  0  0  0  0
M  END
>  <MODEL>
8

>  <REMARK>
 VINA RESULT:    -7.676      3.525      4.120
 INTER + INTRA:         -10.393
 INTER:                  -9.946
 INTRA:                  -0.447
 UNBOUND:                -0.473
 SMILES CNC(=O)C(=O)N/C=C/[C@@H](F)Nc1ccc(F)cc1
 SMILES IDX 8 1 9 2 7 3 5 4 6 5 3 7 2 8 4 9 1 10 10 12 11 13 12 14 13 16
 SMILES IDX 14 17 19 18 15 19 18 20 16 21 17 22
 H PARENT 7 6 2 11 12 15

>  <TORSDO>
F 5

$$$$
research/ai4chem/closed_loop/ipf_cycle1/docking_1vjy/cand_0004_dock.pdbqt
 OpenBabel03012623503D

 22 22  0  0  1  0  0  0  0  0999 V2000
   17.3020   68.5530    4.9410 C   0  0  0  0  0  3  0  0  0  0  0  0
   16.1420   68.1480    5.4740 C   0  0  0  0  0  3  0  0  0  0  0  0
   18.2880   69.1260    5.6980 N   0  0  0  0  0  0  0  0  0  0  0  0
   19.4190   69.7210    5.1750 C   0  0  0  0  0  0  0  0  0  0  0  0
   19.7190   69.8390    3.9940 O   0  0  0  0  0  0  0  0  0  0  0  0
   18.2260   69.1170    6.7140 H   0  0  0  0  0  0  0  0  0  0  0  0
   20.3610   70.2700    6.2670 C   0  0  0  0  0  0  0  0  0  0  0  0
   20.1690   69.6980    7.5030 N   0  0  0  0  0  0  0  0  0  0  0  0
   21.1750   71.1390    5.9870 O   0  0  0  0  0  0  0  0  0  0  0  0
   20.8590   70.1560    8.6780 C   0  0  0  0  0  1  0  0  0  0  0  0
   19.3840   69.0560    7.5860 H   0  0  0  0  0  0  0  0  0  0  0  0
   15.0320   67.5110    4.6990 C   0  0  1  0  0  3  0  0  0  0  0  0
   15.3070   67.5010    3.3660 F   0  0  0  0  0  0  0  0  0  0  0  0
   14.9530   66.1230    5.0940 N   0  0  0  0  0  0  0  0  0  0  0  0
   15.6740   65.6100    4.5950 H   0  0  0  0  0  0  0  0  0  0  0  0
   13.7300   65.4530    5.1160 C   0  0  0  0  0  0  0  0  0  0  0  0
   13.3670   64.4740    4.1800 C   0  0  0  0  0  3  0  0  0  0  0  0
   12.7480   65.8840    6.0250 C   0  0  0  0  0  3  0  0  0  0  0  0
   12.0960   63.8890    4.2020 C   0  0  0  0  0  3  0  0  0  0  0  0
   11.4770   65.3030    6.0520 C   0  0  0  0  0  3  0  0  0  0  0  0
   11.1650   64.3040    5.1420 C   0  0  0  0  0  0  0  0  0  0  0  0
    9.9470   63.7480    5.1600 F   0  0  0  0  0  0  0  0  0  0  0  0
  1  2  2  0  0  0  0
  1  3  1  0  0  0  0
  3  6  1  0  0  0  0
  4  3  1  0  0  0  0
  4  7  1  0  0  0  0
  5  4  2  0  0  0  0
  7  8  1  0  0  0  0
  8 11  1  0  0  0  0
  8 10  1  0  0  0  0
  9  7  2  0  0  0  0
 12 13  1  6  0  0  0
 12 14  1  0  0  0  0
 12  2  1  0  0  0  0
 14 16  1  0  0  0  0
 15 14  1  0  0  0  0
 16 18  1  0  0  0  0
 17 19  1  0  0  0  0
 17 16  2  0  0  0  0
 18 20  2  0  0  0  0
 19 21  2  0  0  0  0
 21 22  1  0  0  0  0
 21 20  1  0  0  0  0
M  END
>  <MODEL>
9

>  <REMARK>
 VINA RESULT:    -7.561      2.456      2.964
 INTER + INTRA:         -10.245
 INTER:                  -9.805
 INTRA:                  -0.439
 UNBOUND:                -0.473
 SMILES CNC(=O)C(=O)N/C=C/[C@@H](F)Nc1ccc(F)cc1
 SMILES IDX 8 1 9 2 7 3 5 4 6 5 3 7 2 8 4 9 1 10 10 12 11 13 12 14 13 16
 SMILES IDX 14 17 19 18 15 19 18 20 16 21 17 22
 H PARENT 7 6 2 11 12 15

>  <TORSDO>
F 5

$$$$
research/ai4chem/closed_loop/ipf_cycle1/docking_1vjy/cand_0004_dock.pdbqt
 OpenBabel03012623503D

 22 22  0  0  1  0  0  0  0  0999 V2000
   17.3060   68.8130    3.4090 C   0  0  0  0  0  3  0  0  0  0  0  0
   16.8460   67.6360    3.8500 C   0  0  0  0  0  3  0  0  0  0  0  0
   18.6320   69.0180    3.1370 N   0  0  0  0  0  0  0  0  0  0  0  0
   19.5540   69.4630    4.0630 C   0  0  0  0  0  0  0  0  0  0  0  0
   19.3540   69.7310    5.2400 O   0  0  0  0  0  0  0  0  0  0  0  0
   18.9930   68.8600    2.1980 H   0  0  0  0  0  0  0  0  0  0  0  0
   20.9700   69.6140    3.4690 C   0  0  0  0  0  0  0  0  0  0  0  0
   20.9880   69.6910    2.0950 N   0  0  0  0  0  0  0  0  0  0  0  0
   21.9410   69.6490    4.2110 O   0  0  0  0  0  0  0  0  0  0  0  0
   22.2120   69.7120    1.3420 C   0  0  0  0  0  1  0  0  0  0  0  0
   20.0970   69.5510    1.6230 H   0  0  0  0  0  0  0  0  0  0  0  0
   15.4100   67.3510    4.1590 C   0  0  1  0  0  3  0  0  0  0  0  0
   14.5940   67.8240    3.1780 F   0  0  0  0  0  0  0  0  0  0  0  0
   15.2310   65.9170    4.1620 N   0  0  0  0  0  0  0  0  0  0  0  0
   15.5350   65.5580    3.2620 H   0  0  0  0  0  0  0  0  0  0  0  0
   14.0340   65.3450    4.5950 C   0  0  0  0  0  0  0  0  0  0  0  0
   13.3750   64.3160    3.9080 C   0  0  0  0  0  3  0  0  0  0  0  0
   13.3720   65.9280    5.6890 C   0  0  0  0  0  3  0  0  0  0  0  0
   12.1370   63.8320    4.3450 C   0  0  0  0  0  3  0  0  0  0  0  0
   12.1350   65.4490    6.1310 C   0  0  0  0  0  3  0  0  0  0  0  0
   11.5320   64.3990    5.4570 C   0  0  0  0  0  0  0  0  0  0  0  0
   10.3450   63.9390    5.8720 F   0  0  0  0  0  0  0  0  0  0  0  0
  1  2  2  0  0  0  0
  2 12  1  0  0  0  0
  3  1  1  0  0  0  0
  3  4  1  0  0  0  0
  4  5  2  0  0  0  0
  6  3  1  0  0  0  0
  7  4  1  0  0  0  0
  7  9  2  0  0  0  0
  8  7  1  0  0  0  0
 10  8  1  0  0  0  0
 11  8  1  0  0  0  0
 12 13  1  6  0  0  0
 12 14  1  0  0  0  0
 14 16  1  0  0  0  0
 15 14  1  0  0  0  0
 16 18  1  0  0  0  0
 17 19  1  0  0  0  0
 17 16  2  0  0  0  0
 18 20  2  0  0  0  0
 19 21  2  0  0  0  0
 21 22  1  0  0  0  0
 21 20  1  0  0  0  0
M  END
>  <MODEL>
10

>  <REMARK>
 VINA RESULT:    -7.537      1.286      1.286
 INTER + INTRA:         -10.214
 INTER:                  -9.706
 INTRA:                  -0.508
 UNBOUND:                -0.473
 SMILES CNC(=O)C(=O)N/C=C/[C@@H](F)Nc1ccc(F)cc1
 SMILES IDX 8 1 9 2 7 3 5 4 6 5 3 7 2 8 4 9 1 10 10 12 11 13 12 14 13 16
 SMILES IDX 14 17 19 18 15 19 18 20 16 21 17 22
 H PARENT 7 6 2 11 12 15

>  <TORSDO>
F 5

$$$$
research/ai4chem/closed_loop/ipf_cycle1/docking_1vjy/cand_0004_dock.pdbqt
 OpenBabel03012623503D

 22 22  0  0  1  0  0  0  0  0999 V2000
   16.6780   67.8870    6.7470 C   0  0  0  0  0  3  0  0  0  0  0  0
   16.4850   67.6090    5.4520 C   0  0  0  0  0  3  0  0  0  0  0  0
   17.9230   68.1440    7.2570 N   0  0  0  0  0  0  0  0  0  0  0  0
   18.3090   69.3610    7.7820 C   0  0  0  0  0  0  0  0  0  0  0  0
   17.6310   70.3750    7.8840 O   0  0  0  0  0  0  0  0  0  0  0  0
   18.6390   67.4210    7.2490 H   0  0  0  0  0  0  0  0  0  0  0  0
   19.7730   69.3610    8.2690 C   0  0  0  0  0  0  0  0  0  0  0  0
   20.0850   70.4270    9.0820 N   0  0  0  0  0  0  0  0  0  0  0  0
   20.5310   68.4670    7.9200 O   0  0  0  0  0  0  0  0  0  0  0  0
   21.4240   70.6770    9.5400 C   0  0  0  0  0  1  0  0  0  0  0  0
   19.3620   71.1340    9.1970 H   0  0  0  0  0  0  0  0  0  0  0  0
   15.1500   67.3260    4.8380 C   0  0  1  0  0  3  0  0  0  0  0  0
   15.1700   67.5490    3.4950 F   0  0  0  0  0  0  0  0  0  0  0  0
   14.8780   65.9150    4.9960 N   0  0  0  0  0  0  0  0  0  0  0  0
   15.4710   65.4030    4.3510 H   0  0  0  0  0  0  0  0  0  0  0  0
   13.5670   65.4360    5.0210 C   0  0  0  0  0  0  0  0  0  0  0  0
   12.6440   65.7620    6.0240 C   0  0  0  0  0  3  0  0  0  0  0  0
   13.1960   64.4590    4.0820 C   0  0  0  0  0  3  0  0  0  0  0  0
   11.3660   65.1900    6.0430 C   0  0  0  0  0  3  0  0  0  0  0  0
   11.9210   63.8850    4.0950 C   0  0  0  0  0  3  0  0  0  0  0  0
   11.0150   64.2630    5.0740 C   0  0  0  0  0  0  0  0  0  0  0  0
    9.7940   63.7130    5.0950 F   0  0  0  0  0  0  0  0  0  0  0  0
  1  3  1  0  0  0  0
  2  1  2  0  0  0  0
  3  4  1  0  0  0  0
  4  5  2  0  0  0  0
  4  7  1  0  0  0  0
  6  3  1  0  0  0  0
  7  8  1  0  0  0  0
  8 11  1  0  0  0  0
  8 10  1  0  0  0  0
  9  7  2  0  0  0  0
 12 13  1  6  0  0  0
 12 14  1  0  0  0  0
 12  2  1  0  0  0  0
 14 16  1  0  0  0  0
 15 14  1  0  0  0  0
 16 17  1  0  0  0  0
 17 19  2  0  0  0  0
 18 20  1  0  0  0  0
 18 16  2  0  0  0  0
 20 21  2  0  0  0  0
 21 22  1  0  0  0  0
 21 19  1  0  0  0  0
M  END
>  <MODEL>
11

>  <REMARK>
 VINA RESULT:    -7.499      3.763      4.233
 INTER + INTRA:         -10.165
 INTER:                  -9.720
 INTRA:                  -0.445
 UNBOUND:                -0.473
 SMILES CNC(=O)C(=O)N/C=C/[C@@H](F)Nc1ccc(F)cc1
 SMILES IDX 8 1 9 2 7 3 5 4 6 5 3 7 2 8 4 9 1 10 10 12 11 13 12 14 13 16
 SMILES IDX 14 17 19 18 15 19 18 20 16 21 17 22
 H PARENT 7 6 2 11 12 15

>  <TORSDO>
F 5

$$$$
research/ai4chem/closed_loop/ipf_cycle1/docking_1vjy/cand_0004_dock.pdbqt
 OpenBabel03012623503D

 22 22  0  0  1  0  0  0  0  0999 V2000
   15.4320   67.9080    5.7590 C   0  0  0  0  0  3  0  0  0  0  0  0
   16.7500   67.6780    5.7180 C   0  0  0  0  0  3  0  0  0  0  0  0
   14.5150   66.9220    5.5100 N   0  0  0  0  0  0  0  0  0  0  0  0
   13.5500   66.5150    6.4100 C   0  0  0  0  0  0  0  0  0  0  0  0
   13.3520   66.9520    7.5360 O   0  0  0  0  0  0  0  0  0  0  0  0
   14.5260   66.4240    4.6220 H   0  0  0  0  0  0  0  0  0  0  0  0
   12.6660   65.3770    5.8600 C   0  0  0  0  0  0  0  0  0  0  0  0
   13.0740   64.9010    4.6340 N   0  0  0  0  0  0  0  0  0  0  0  0
   11.7020   64.9890    6.5050 O   0  0  0  0  0  0  0  0  0  0  0  0
   12.3160   63.9280    3.8960 C   0  0  0  0  0  1  0  0  0  0  0  0
   13.8410   65.4000    4.1900 H   0  0  0  0  0  0  0  0  0  0  0  0
   17.7970   68.7130    5.9860 C   0  0  1  0  0  3  0  0  0  0  0  0
   18.0370   68.8330    7.3210 F   0  0  0  0  0  0  0  0  0  0  0  0
   19.0370   68.2520    5.4050 N   0  0  0  0  0  0  0  0  0  0  0  0
   19.7290   68.1830    6.1450 H   0  0  0  0  0  0  0  0  0  0  0  0
   19.5450   68.8360    4.2440 C   0  0  0  0  0  0  0  0  0  0  0  0
   18.7800   69.0560    3.0900 C   0  0  0  0  0  3  0  0  0  0  0  0
   20.9280   69.0780    4.1680 C   0  0  0  0  0  3  0  0  0  0  0  0
   19.3600   69.5740    1.9260 C   0  0  0  0  0  3  0  0  0  0  0  0
   21.5130   69.5950    3.0080 C   0  0  0  0  0  3  0  0  0  0  0  0
   20.7200   69.8450    1.8990 C   0  0  0  0  0  0  0  0  0  0  0  0
   21.2750   70.3360    0.7840 F   0  0  0  0  0  0  0  0  0  0  0  0
  2  1  2  0  0  0  0
  2 12  1  0  0  0  0
  3  1  1  0  0  0  0
  3  4  1  0  0  0  0
  4  5  2  0  0  0  0
  6  3  1  0  0  0  0
  7  4  1  0  0  0  0
  7  9  2  0  0  0  0
  8  7  1  0  0  0  0
 10  8  1  0  0  0  0
 11  8  1  0  0  0  0
 12 13  1  1  0  0  0
 14 12  1  0  0  0  0
 14 15  1  0  0  0  0
 16 14  1  0  0  0  0
 17 16  2  0  0  0  0
 18 16  1  0  0  0  0
 19 17  1  0  0  0  0
 20 18  2  0  0  0  0
 21 19  2  0  0  0  0
 21 20  1  0  0  0  0
 22 21  1  0  0  0  0
M  END
>  <MODEL>
12

>  <REMARK>
 VINA RESULT:    -7.417      4.203      8.578
 INTER + INTRA:         -10.058
 INTER:                  -9.629
 INTRA:                  -0.430
 UNBOUND:                -0.473
 SMILES CNC(=O)C(=O)N/C=C/[C@@H](F)Nc1ccc(F)cc1
 SMILES IDX 8 1 9 2 7 3 5 4 6 5 3 7 2 8 4 9 1 10 10 12 11 13 12 14 13 16
 SMILES IDX 14 17 19 18 15 19 18 20 16 21 17 22
 H PARENT 7 6 2 11 12 15

>  <TORSDO>
F 5

$$$$
research/ai4chem/closed_loop/ipf_cycle1/docking_1vjy/cand_0004_dock.pdbqt
 OpenBabel03012623503D

 22 22  0  0  1  0  0  0  0  0999 V2000
   15.6200   67.3160    3.8230 C   0  0  0  0  0  3  0  0  0  0  0  0
   15.6110   68.2520    2.8650 C   0  0  0  0  0  3  0  0  0  0  0  0
   14.4790   66.6700    4.2180 N   0  0  0  0  0  0  0  0  0  0  0  0
   14.2970   65.3040    4.1390 C   0  0  0  0  0  0  0  0  0  0  0  0
   15.0920   64.4700    3.7270 O   0  0  0  0  0  0  0  0  0  0  0  0
   13.6890   67.1990    4.5820 H   0  0  0  0  0  0  0  0  0  0  0  0
   12.9080   64.8590    4.6440 C   0  0  0  0  0  0  0  0  0  0  0  0
   12.1270   64.2730    3.6740 N   0  0  0  0  0  0  0  0  0  0  0  0
   12.5960   65.0480    5.8120 O   0  0  0  0  0  0  0  0  0  0  0  0
   10.7590   63.9020    3.9090 C   0  0  0  0  0  1  0  0  0  0  0  0
   12.5030   64.2780    2.7280 H   0  0  0  0  0  0  0  0  0  0  0  0
   16.8240   68.9870    2.3900 C   0  0  1  0  0  3  0  0  0  0  0  0
   16.6000   70.3290    2.3510 F   0  0  0  0  0  0  0  0  0  0  0  0
   17.8730   68.7910    3.3640 N   0  0  0  0  0  0  0  0  0  0  0  0
   17.5350   69.1180    4.2640 H   0  0  0  0  0  0  0  0  0  0  0  0
   19.1820   69.1970    3.1000 C   0  0  0  0  0  0  0  0  0  0  0  0
   19.6250   69.6000    1.8320 C   0  0  0  0  0  3  0  0  0  0  0  0
   20.1440   69.0510    4.1130 C   0  0  0  0  0  3  0  0  0  0  0  0
   20.9680   69.9210    1.6050 C   0  0  0  0  0  3  0  0  0  0  0  0
   21.4870   69.3720    3.8930 C   0  0  0  0  0  3  0  0  0  0  0  0
   21.8850   69.8110    2.6400 C   0  0  0  0  0  0  0  0  0  0  0  0
   23.1700   70.1150    2.4220 F   0  0  0  0  0  0  0  0  0  0  0  0
  1  3  1  0  0  0  0
  2  1  2  0  0  0  0
  3  6  1  0  0  0  0
  4  3  1  0  0  0  0
  4  7  1  0  0  0  0
  5  4  2  0  0  0  0
  7  9  2  0  0  0  0
  8 10  1  0  0  0  0
  8  7  1  0  0  0  0
 11  8  1  0  0  0  0
 12 13  1  1  0  0  0
 12  2  1  0  0  0  0
 12 14  1  0  0  0  0
 14 15  1  0  0  0  0
 16 14  1  0  0  0  0
 16 18  1  0  0  0  0
 17 16  2  0  0  0  0
 19 17  1  0  0  0  0
 19 21  2  0  0  0  0
 20 18  2  0  0  0  0
 21 20  1  0  0  0  0
 22 21  1  0  0  0  0
M  END
>  <MODEL>
13

>  <REMARK>
 VINA RESULT:    -7.342      3.683      8.693
 INTER + INTRA:          -9.961
 INTER:                  -9.539
 INTRA:                  -0.422
 UNBOUND:                -0.473
 SMILES CNC(=O)C(=O)N/C=C/[C@@H](F)Nc1ccc(F)cc1
 SMILES IDX 8 1 9 2 7 3 5 4 6 5 3 7 2 8 4 9 1 10 10 12 11 13 12 14 13 16
 SMILES IDX 14 17 19 18 15 19 18 20 16 21 17 22
 H PARENT 7 6 2 11 12 15

>  <TORSDO>
F 5

$$$$
research/ai4chem/closed_loop/ipf_cycle1/docking_1vjy/cand_0004_dock.pdbqt
 OpenBabel03012623503D

 22 22  0  0  1  0  0  0  0  0999 V2000
   15.5680   66.5280    4.5090 C   0  0  0  0  0  3  0  0  0  0  0  0
   15.7740   67.6550    3.8160 C   0  0  0  0  0  3  0  0  0  0  0  0
   14.3430   65.9180    4.5550 N   0  0  0  0  0  0  0  0  0  0  0  0
   14.0650   64.6960    3.9750 C   0  0  0  0  0  0  0  0  0  0  0  0
   14.8340   63.9760    3.3540 O   0  0  0  0  0  0  0  0  0  0  0  0
   13.5610   66.3720    5.0230 H   0  0  0  0  0  0  0  0  0  0  0  0
   12.5970   64.2630    4.1770 C   0  0  0  0  0  0  0  0  0  0  0  0
   12.0870   64.5950    5.4120 N   0  0  0  0  0  0  0  0  0  0  0  0
   12.0070   63.6760    3.2810 O   0  0  0  0  0  0  0  0  0  0  0  0
   10.7820   64.1740    5.8420 C   0  0  0  0  0  1  0  0  0  0  0  0
   12.7420   64.9980    6.0770 H   0  0  0  0  0  0  0  0  0  0  0  0
   17.0890   68.3630    3.7260 C   0  0  1  0  0  3  0  0  0  0  0  0
   17.0700   69.3090    2.7470 F   0  0  0  0  0  0  0  0  0  0  0  0
   17.2940   69.0830    4.9620 N   0  0  0  0  0  0  0  0  0  0  0  0
   17.7290   69.9730    4.7430 H   0  0  0  0  0  0  0  0  0  0  0  0
   17.8690   68.4570    6.0690 C   0  0  0  0  0  0  0  0  0  0  0  0
   17.2510   68.3850    7.3250 C   0  0  0  0  0  3  0  0  0  0  0  0
   19.1980   68.0110    5.9670 C   0  0  0  0  0  3  0  0  0  0  0  0
   17.9080   67.8140    8.4220 C   0  0  0  0  0  3  0  0  0  0  0  0
   19.8590   67.4390    7.0590 C   0  0  0  0  0  3  0  0  0  0  0  0
   19.2030   67.3410    8.2760 C   0  0  0  0  0  0  0  0  0  0  0  0
   19.8320   66.7990    9.3260 F   0  0  0  0  0  0  0  0  0  0  0  0
  1  3  1  0  0  0  0
  2  1  2  0  0  0  0
  3  6  1  0  0  0  0
  4  7  1  0  0  0  0
  4  3  1  0  0  0  0
  5  4  2  0  0  0  0
  7  8  1  0  0  0  0
  8 10  1  0  0  0  0
  8 11  1  0  0  0  0
  9  7  2  0  0  0  0
 12 13  1  6  0  0  0
 12  2  1  0  0  0  0
 12 14  1  0  0  0  0
 14 16  1  0  0  0  0
 15 14  1  0  0  0  0
 16 17  1  0  0  0  0
 17 19  2  0  0  0  0
 18 16  2  0  0  0  0
 18 20  1  0  0  0  0
 20 21  2  0  0  0  0
 21 19  1  0  0  0  0
 21 22  1  0  0  0  0
M  END
>  <MODEL>
14

>  <REMARK>
 VINA RESULT:    -7.266      4.177      7.798
 INTER + INTRA:          -9.863
 INTER:                  -9.391
 INTRA:                  -0.472
 UNBOUND:                -0.473
 SMILES CNC(=O)C(=O)N/C=C/[C@@H](F)Nc1ccc(F)cc1
 SMILES IDX 8 1 9 2 7 3 5 4 6 5 3 7 2 8 4 9 1 10 10 12 11 13 12 14 13 16
 SMILES IDX 14 17 19 18 15 19 18 20 16 21 17 22
 H PARENT 7 6 2 11 12 15

>  <TORSDO>
F 5

$$$$
research/ai4chem/closed_loop/ipf_cycle1/docking_1vjy/cand_0004_dock.pdbqt
 OpenBabel03012623503D

 22 22  0  0  1  0  0  0  0  0999 V2000
   17.7810   68.0400    5.7520 C   0  0  0  0  0  3  0  0  0  0  0  0
   16.5550   68.5500    5.5820 C   0  0  0  0  0  3  0  0  0  0  0  0
   18.8800   68.5650    5.1270 N   0  0  0  0  0  0  0  0  0  0  0  0
   19.0410   68.6180    3.7570 C   0  0  0  0  0  0  0  0  0  0  0  0
   18.2590   68.2280    2.9010 O   0  0  0  0  0  0  0  0  0  0  0  0
   19.6550   68.9340    5.6760 H   0  0  0  0  0  0  0  0  0  0  0  0
   20.3850   69.2530    3.3400 C   0  0  0  0  0  0  0  0  0  0  0  0
   20.3790   69.7740    2.0660 N   0  0  0  0  0  0  0  0  0  0  0  0
   21.3270   69.2500    4.1200 O   0  0  0  0  0  0  0  0  0  0  0  0
   21.5640   70.2980    1.4460 C   0  0  0  0  0  1  0  0  0  0  0  0
   19.5400   69.6080    1.5150 H   0  0  0  0  0  0  0  0  0  0  0  0
   15.3200   68.0220    6.2420 C   0  0  1  0  0  3  0  0  0  0  0  0
   14.2030   68.3890    5.5560 F   0  0  0  0  0  0  0  0  0  0  0  0
   15.3640   66.5790    6.1780 N   0  0  0  0  0  0  0  0  0  0  0  0
   16.3110   66.3010    5.9400 H   0  0  0  0  0  0  0  0  0  0  0  0
   14.3970   65.8630    5.4710 C   0  0  0  0  0  0  0  0  0  0  0  0
   13.0700   65.7240    5.9010 C   0  0  0  0  0  3  0  0  0  0  0  0
   14.8040   65.1160    4.3530 C   0  0  0  0  0  3  0  0  0  0  0  0
   12.1610   64.9290    5.1930 C   0  0  0  0  0  3  0  0  0  0  0  0
   13.9010   64.3200    3.6420 C   0  0  0  0  0  3  0  0  0  0  0  0
   12.5830   64.2400    4.0660 C   0  0  0  0  0  0  0  0  0  0  0  0
   11.7150   63.4770    3.3920 F   0  0  0  0  0  0  0  0  0  0  0  0
  2  1  2  0  0  0  0
  2 12  1  0  0  0  0
  3  6  1  0  0  0  0
  3  1  1  0  0  0  0
  4  3  1  0  0  0  0
  5  4  2  0  0  0  0
  7  4  1  0  0  0  0
  7  9  2  0  0  0  0
  8  7  1  0  0  0  0
 10  8  1  0  0  0  0
 11  8  1  0  0  0  0
 12 13  1  6  0  0  0
 14 12  1  0  0  0  0
 15 14  1  0  0  0  0
 16 17  1  0  0  0  0
 16 14  1  0  0  0  0
 18 16  2  0  0  0  0
 19 17  2  0  0  0  0
 20 21  2  0  0  0  0
 20 18  1  0  0  0  0
 21 19  1  0  0  0  0
 22 21  1  0  0  0  0
M  END
>  <MODEL>
15

>  <REMARK>
 VINA RESULT:    -7.217      1.557      1.968
 INTER + INTRA:          -9.799
 INTER:                  -9.515
 INTRA:                  -0.285
 UNBOUND:                -0.473
 SMILES CNC(=O)C(=O)N/C=C/[C@@H](F)Nc1ccc(F)cc1
 SMILES IDX 8 1 9 2 7 3 5 4 6 5 3 7 2 8 4 9 1 10 10 12 11 13 12 14 13 16
 SMILES IDX 14 17 19 18 15 19 18 20 16 21 17 22
 H PARENT 7 6 2 11 12 15

>  <TORSDO>
F 5

$$$$
research/ai4chem/closed_loop/ipf_cycle1/docking_1vjy/cand_0004_dock.pdbqt
 OpenBabel03012623503D

 22 22  0  0  1  0  0  0  0  0999 V2000
   15.5000   66.5120    4.1430 C   0  0  0  0  0  3  0  0  0  0  0  0
   15.7160   67.7860    3.7900 C   0  0  0  0  0  3  0  0  0  0  0  0
   14.3390   66.1130    4.7480 N   0  0  0  0  0  0  0  0  0  0  0  0
   13.5450   65.0790    4.2940 C   0  0  0  0  0  0  0  0  0  0  0  0
   13.7380   64.3670    3.3180 O   0  0  0  0  0  0  0  0  0  0  0  0
   14.0000   66.5970    5.5770 H   0  0  0  0  0  0  0  0  0  0  0  0
   12.2920   64.8630    5.1690 C   0  0  0  0  0  0  0  0  0  0  0  0
   11.2700   64.2090    4.5200 N   0  0  0  0  0  0  0  0  0  0  0  0
   12.2790   65.2680    6.3230 O   0  0  0  0  0  0  0  0  0  0  0  0
    9.9770   64.0190    5.1180 C   0  0  0  0  0  1  0  0  0  0  0  0
   11.4100   64.0240    3.5290 H   0  0  0  0  0  0  0  0  0  0  0  0
   16.9600   68.2790    3.1220 C   0  0  1  0  0  3  0  0  0  0  0  0
   16.6650   69.0110    2.0130 F   0  0  0  0  0  0  0  0  0  0  0  0
   17.6200   69.1910    4.0290 N   0  0  0  0  0  0  0  0  0  0  0  0
   18.1550   69.8550    3.4780 H   0  0  0  0  0  0  0  0  0  0  0  0
   18.3260   68.7150    5.1350 C   0  0  0  0  0  0  0  0  0  0  0  0
   19.5770   68.0880    5.0430 C   0  0  0  0  0  3  0  0  0  0  0  0
   17.6890   68.7240    6.3880 C   0  0  0  0  0  3  0  0  0  0  0  0
   20.2050   67.5600    6.1770 C   0  0  0  0  0  3  0  0  0  0  0  0
   18.3110   68.1980    7.5240 C   0  0  0  0  0  3  0  0  0  0  0  0
   19.5690   67.6260    7.4080 C   0  0  0  0  0  0  0  0  0  0  0  0
   20.1680   67.1160    8.4910 F   0  0  0  0  0  0  0  0  0  0  0  0
  1  3  1  0  0  0  0
  2  1  2  0  0  0  0
  3  6  1  0  0  0  0
  4  3  1  0  0  0  0
  4  7  1  0  0  0  0
  5  4  2  0  0  0  0
  7  9  2  0  0  0  0
  8 10  1  0  0  0  0
  8  7  1  0  0  0  0
 11  8  1  0  0  0  0
 12 13  1  6  0  0  0
 12  2  1  0  0  0  0
 12 14  1  0  0  0  0
 14 16  1  0  0  0  0
 15 14  1  0  0  0  0
 16 18  1  0  0  0  0
 17 16  2  0  0  0  0
 17 19  1  0  0  0  0
 18 20  2  0  0  0  0
 19 21  2  0  0  0  0
 21 20  1  0  0  0  0
 21 22  1  0  0  0  0
M  END
>  <MODEL>
16

>  <REMARK>
 VINA RESULT:    -7.165      4.046      7.922
 INTER + INTRA:          -9.732
 INTER:                  -9.284
 INTRA:                  -0.448
 UNBOUND:                -0.473
 SMILES CNC(=O)C(=O)N/C=C/[C@@H](F)Nc1ccc(F)cc1
 SMILES IDX 8 1 9 2 7 3 5 4 6 5 3 7 2 8 4 9 1 10 10 12 11 13 12 14 13 16
 SMILES IDX 14 17 19 18 15 19 18 20 16 21 17 22
 H PARENT 7 6 2 11 12 15

>  <TORSDO>
F 5

$$$$
research/ai4chem/closed_loop/ipf_cycle1/docking_1vjy/cand_0004_dock.pdbqt
 OpenBabel03012623503D

 22 22  0  0  1  0  0  0  0  0999 V2000
   15.6970   66.8090    3.8830 C   0  0  0  0  0  3  0  0  0  0  0  0
   15.7960   67.9250    3.1490 C   0  0  0  0  0  3  0  0  0  0  0  0
   14.5010   66.1720    4.0780 N   0  0  0  0  0  0  0  0  0  0  0  0
   14.2920   64.8280    3.8410 C   0  0  0  0  0  0  0  0  0  0  0  0
   15.1070   64.0080    3.4400 O   0  0  0  0  0  0  0  0  0  0  0  0
   13.6890   66.6940    4.4010 H   0  0  0  0  0  0  0  0  0  0  0  0
   12.8420   64.3910    4.1380 C   0  0  0  0  0  0  0  0  0  0  0  0
   12.4250   64.6870    5.4160 N   0  0  0  0  0  0  0  0  0  0  0  0
   12.1860   63.8310    3.2710 O   0  0  0  0  0  0  0  0  0  0  0  0
   11.1540   64.2550    5.9290 C   0  0  0  0  0  1  0  0  0  0  0  0
   13.1290   65.0700    6.0430 H   0  0  0  0  0  0  0  0  0  0  0  0
   17.0740   68.6610    2.8960 C   0  0  1  0  0  3  0  0  0  0  0  0
   16.9570   69.9750    3.2290 F   0  0  0  0  0  0  0  0  0  0  0  0
   18.0800   68.1200    3.7820 N   0  0  0  0  0  0  0  0  0  0  0  0
   17.8170   67.1690    4.0180 H   0  0  0  0  0  0  0  0  0  0  0  0
   18.5290   68.8470    4.8850 C   0  0  0  0  0  0  0  0  0  0  0  0
   19.6580   69.6780    4.8570 C   0  0  0  0  0  3  0  0  0  0  0  0
   17.9150   68.6200    6.1290 C   0  0  0  0  0  3  0  0  0  0  0  0
   20.1100   70.3220    6.0150 C   0  0  0  0  0  3  0  0  0  0  0  0
   18.3610   69.2620    7.2880 C   0  0  0  0  0  3  0  0  0  0  0  0
   19.4530   70.1130    7.2180 C   0  0  0  0  0  0  0  0  0  0  0  0
   19.8870   70.7270    8.3250 F   0  0  0  0  0  0  0  0  0  0  0  0
  1  3  1  0  0  0  0
  2  1  2  0  0  0  0
  3  6  1  0  0  0  0
  4  3  1  0  0  0  0
  4  7  1  0  0  0  0
  5  4  2  0  0  0  0
  7  8  1  0  0  0  0
  8 10  1  0  0  0  0
  8 11  1  0  0  0  0
  9  7  2  0  0  0  0
 12  2  1  0  0  0  0
 12 13  1  1  0  0  0
 12 14  1  0  0  0  0
 14 15  1  0  0  0  0
 14 16  1  0  0  0  0
 16 18  1  0  0  0  0
 17 16  2  0  0  0  0
 17 19  1  0  0  0  0
 18 20  2  0  0  0  0
 19 21  2  0  0  0  0
 21 20  1  0  0  0  0
 21 22  1  0  0  0  0
M  END
>  <MODEL>
17

>  <REMARK>
 VINA RESULT:    -7.137      3.916      8.047
 INTER + INTRA:          -9.696
 INTER:                  -9.142
 INTRA:                  -0.555
 UNBOUND:                -0.473
 SMILES CNC(=O)C(=O)N/C=C/[C@@H](F)Nc1ccc(F)cc1
 SMILES IDX 8 1 9 2 7 3 5 4 6 5 3 7 2 8 4 9 1 10 10 12 11 13 12 14 13 16
 SMILES IDX 14 17 19 18 15 19 18 20 16 21 17 22
 H PARENT 7 6 2 11 12 15

>  <TORSDO>
F 5

$$$$
research/ai4chem/closed_loop/ipf_cycle1/docking_1vjy/cand_0004_dock.pdbqt
 OpenBabel03012623503D

 22 22  0  0  1  0  0  0  0  0999 V2000
   17.2390   67.6740    7.7180 C   0  0  0  0  0  3  0  0  0  0  0  0
   16.6760   68.3220    6.6910 C   0  0  0  0  0  3  0  0  0  0  0  0
   18.3430   68.1590    8.3660 N   0  0  0  0  0  0  0  0  0  0  0  0
   19.2590   67.3700    9.0330 C   0  0  0  0  0  0  0  0  0  0  0  0
   19.2460   66.1520    9.1480 O   0  0  0  0  0  0  0  0  0  0  0  0
   18.5230   69.1610    8.3940 H   0  0  0  0  0  0  0  0  0  0  0  0
   20.3940   68.1920    9.6790 C   0  0  0  0  0  0  0  0  0  0  0  0
   20.0930   69.5270    9.8310 N   0  0  0  0  0  0  0  0  0  0  0  0
   21.4390   67.6420    9.9960 O   0  0  0  0  0  0  0  0  0  0  0  0
   21.0580   70.4830   10.2990 C   0  0  0  0  0  1  0  0  0  0  0  0
   19.2130   69.8390    9.4270 H   0  0  0  0  0  0  0  0  0  0  0  0
   15.4680   67.8450    5.9490 C   0  0  1  0  0  3  0  0  0  0  0  0
   14.6620   68.8850    5.6030 F   0  0  0  0  0  0  0  0  0  0  0  0
   15.9120   67.2610    4.7030 N   0  0  0  0  0  0  0  0  0  0  0  0
   16.3820   66.3860    4.9130 H   0  0  0  0  0  0  0  0  0  0  0  0
   16.5940   68.0270    3.7560 C   0  0  0  0  0  0  0  0  0  0  0  0
   15.9750   68.6040    2.6380 C   0  0  0  0  0  3  0  0  0  0  0  0
   17.9950   68.0980    3.8380 C   0  0  0  0  0  3  0  0  0  0  0  0
   16.7210   69.2960    1.6770 C   0  0  0  0  0  3  0  0  0  0  0  0
   18.7450   68.7890    2.8820 C   0  0  0  0  0  3  0  0  0  0  0  0
   18.0980   69.3880    1.8120 C   0  0  0  0  0  0  0  0  0  0  0  0
   18.8120   70.0470    0.8900 F   0  0  0  0  0  0  0  0  0  0  0  0
  1  3  1  0  0  0  0
  2  1  2  0  0  0  0
  3  6  1  0  0  0  0
  3  4  1  0  0  0  0
  4  5  2  0  0  0  0
  4  7  1  0  0  0  0
  7  8  1  0  0  0  0
  7  9  2  0  0  0  0
  8 10  1  0  0  0  0
 11  8  1  0  0  0  0
 12 13  1  6  0  0  0
 12  2  1  0  0  0  0
 14 15  1  0  0  0  0
 14 12  1  0  0  0  0
 16 18  1  0  0  0  0
 16 14  1  0  0  0  0
 17 16  2  0  0  0  0
 19 21  2  0  0  0  0
 19 17  1  0  0  0  0
 20 18  2  0  0  0  0
 21 20  1  0  0  0  0
 22 21  1  0  0  0  0
M  END
>  <MODEL>
18

>  <REMARK>
 VINA RESULT:    -7.047      4.526      6.842
 INTER + INTRA:          -9.580
 INTER:                  -9.275
 INTRA:                  -0.305
 UNBOUND:                -0.473
 SMILES CNC(=O)C(=O)N/C=C/[C@@H](F)Nc1ccc(F)cc1
 SMILES IDX 8 1 9 2 7 3 5 4 6 5 3 7 2 8 4 9 1 10 10 12 11 13 12 14 13 16
 SMILES IDX 14 17 19 18 15 19 18 20 16 21 17 22
 H PARENT 7 6 2 11 12 15

>  <TORSDO>
F 5

$$$$
research/ai4chem/closed_loop/ipf_cycle1/docking_1vjy/cand_0004_dock.pdbqt
 OpenBabel03012623503D

 22 22  0  0  1  0  0  0  0  0999 V2000
   14.7880   67.2380    6.4000 C   0  0  0  0  0  3  0  0  0  0  0  0
   15.7490   66.9370    7.2830 C   0  0  0  0  0  3  0  0  0  0  0  0
   13.8630   66.3160    5.9910 N   0  0  0  0  0  0  0  0  0  0  0  0
   13.7980   65.7970    4.7130 C   0  0  0  0  0  0  0  0  0  0  0  0
   14.5300   66.0560    3.7680 O   0  0  0  0  0  0  0  0  0  0  0  0
   13.1510   65.9810    6.6380 H   0  0  0  0  0  0  0  0  0  0  0  0
   12.6430   64.7870    4.5390 C   0  0  0  0  0  0  0  0  0  0  0  0
   11.5510   65.0530    5.3330 N   0  0  0  0  0  0  0  0  0  0  0  0
   12.7620   63.8570    3.7530 O   0  0  0  0  0  0  0  0  0  0  0  0
   10.4240   64.1650    5.4100 C   0  0  0  0  0  1  0  0  0  0  0  0
   11.6530   65.8130    6.0010 H   0  0  0  0  0  0  0  0  0  0  0  0
   16.7820   67.9020    7.7700 C   0  0  1  0  0  3  0  0  0  0  0  0
   17.9990   67.3030    7.8820 F   0  0  0  0  0  0  0  0  0  0  0  0
   16.9420   68.9280    6.7640 N   0  0  0  0  0  0  0  0  0  0  0  0
   16.0650   69.0180    6.2610 H   0  0  0  0  0  0  0  0  0  0  0  0
   18.0530   68.9380    5.9200 C   0  0  0  0  0  0  0  0  0  0  0  0
   19.2450   69.6120    6.2190 C   0  0  0  0  0  3  0  0  0  0  0  0
   17.9230   68.3750    4.6390 C   0  0  0  0  0  3  0  0  0  0  0  0
   20.3010   69.6540    5.3000 C   0  0  0  0  0  3  0  0  0  0  0  0
   18.9740   68.4140    3.7180 C   0  0  0  0  0  3  0  0  0  0  0  0
   20.1580   69.0490    4.0610 C   0  0  0  0  0  0  0  0  0  0  0  0
   21.1660   69.0930    3.1810 F   0  0  0  0  0  0  0  0  0  0  0  0
  1  2  2  0  0  0  0
  2 12  1  0  0  0  0
  3  1  1  0  0  0  0
  3  6  1  0  0  0  0
  4  3  1  0  0  0  0
  5  4  2  0  0  0  0
  7  4  1  0  0  0  0
  7  8  1  0  0  0  0
  8 10  1  0  0  0  0
  8 11  1  0  0  0  0
  9  7  2  0  0  0  0
 12 13  1  6  0  0  0
 14 12  1  0  0  0  0
 15 14  1  0  0  0  0
 16 17  1  0  0  0  0
 16 14  1  0  0  0  0
 18 16  2  0  0  0  0
 19 17  2  0  0  0  0
 20 21  2  0  0  0  0
 20 18  1  0  0  0  0
 21 19  1  0  0  0  0
 22 21  1  0  0  0  0
M  END
>  <MODEL>
19

>  <REMARK>
 VINA RESULT:    -6.971      4.075      8.238
 INTER + INTRA:          -9.482
 INTER:                  -8.853
 INTRA:                  -0.629
 UNBOUND:                -0.473
 SMILES CNC(=O)C(=O)N/C=C/[C@@H](F)Nc1ccc(F)cc1
 SMILES IDX 8 1 9 2 7 3 5 4 6 5 3 7 2 8 4 9 1 10 10 12 11 13 12 14 13 16
 SMILES IDX 14 17 19 18 15 19 18 20 16 21 17 22
 H PARENT 7 6 2 11 12 15

>  <TORSDO>
F 5

$$$$
research/ai4chem/closed_loop/ipf_cycle1/docking_1vjy/cand_0004_dock.pdbqt
 OpenBabel03012623503D

 22 22  0  0  1  0  0  0  0  0999 V2000
   17.3470   69.5490    7.6530 C   0  0  0  0  0  3  0  0  0  0  0  0
   16.9910   68.3110    7.2910 C   0  0  0  0  0  3  0  0  0  0  0  0
   18.5010   69.8000    8.3450 N   0  0  0  0  0  0  0  0  0  0  0  0
   19.6660   70.2650    7.7670 C   0  0  0  0  0  0  0  0  0  0  0  0
   19.8560   70.5290    6.5870 O   0  0  0  0  0  0  0  0  0  0  0  0
   18.5460   69.6290    9.3470 H   0  0  0  0  0  0  0  0  0  0  0  0
   20.8080   70.4430    8.7890 C   0  0  0  0  0  0  0  0  0  0  0  0
   20.5040   69.9730   10.0460 N   0  0  0  0  0  0  0  0  0  0  0  0
   21.8570   70.9690    8.4440 O   0  0  0  0  0  0  0  0  0  0  0  0
   21.3830   70.1550   11.1680 C   0  0  0  0  0  1  0  0  0  0  0  0
   19.5490   69.6500   10.1880 H   0  0  0  0  0  0  0  0  0  0  0  0
   15.7460   67.9770    6.5300 C   0  0  1  0  0  3  0  0  0  0  0  0
   15.1160   69.1040    6.1010 F   0  0  0  0  0  0  0  0  0  0  0  0
   16.1330   67.2640    5.3340 N   0  0  0  0  0  0  0  0  0  0  0  0
   16.6390   66.4280    5.6130 H   0  0  0  0  0  0  0  0  0  0  0  0
   16.7370   67.9300    4.2670 C   0  0  0  0  0  0  0  0  0  0  0  0
   18.0840   68.3180    4.2590 C   0  0  0  0  0  3  0  0  0  0  0  0
   15.9230   68.3710    3.2090 C   0  0  0  0  0  3  0  0  0  0  0  0
   18.6180   69.0530    3.1950 C   0  0  0  0  0  3  0  0  0  0  0  0
   16.4510   69.1050    2.1430 C   0  0  0  0  0  3  0  0  0  0  0  0
   17.7980   69.4340    2.1430 C   0  0  0  0  0  0  0  0  0  0  0  0
   18.3080   70.1410    1.1270 F   0  0  0  0  0  0  0  0  0  0  0  0
  1  3  1  0  0  0  0
  2  1  2  0  0  0  0
  3  6  1  0  0  0  0
  4  3  1  0  0  0  0
  4  7  1  0  0  0  0
  5  4  2  0  0  0  0
  7  8  1  0  0  0  0
  8 11  1  0  0  0  0
  8 10  1  0  0  0  0
  9  7  2  0  0  0  0
 12 13  1  6  0  0  0
 12  2  1  0  0  0  0
 14 15  1  0  0  0  0
 14 12  1  0  0  0  0
 16 14  1  0  0  0  0
 17 16  1  0  0  0  0
 18 16  2  0  0  0  0
 19 17  2  0  0  0  0
 20 18  1  0  0  0  0
 21 20  2  0  0  0  0
 21 19  1  0  0  0  0
 22 21  1  0  0  0  0
M  END
>  <MODEL>
20

>  <REMARK>
 VINA RESULT:    -6.957      4.265      6.460
 INTER + INTRA:          -9.464
 INTER:                  -9.014
 INTRA:                  -0.449
 UNBOUND:                -0.473
 SMILES CNC(=O)C(=O)N/C=C/[C@@H](F)Nc1ccc(F)cc1
 SMILES IDX 8 1 9 2 7 3 5 4 6 5 3 7 2 8 4 9 1 10 10 12 11 13 12 14 13 16
 SMILES IDX 14 17 19 18 15 19 18 20 16 21 17 22
 H PARENT 7 6 2 11 12 15

>  <TORSDO>
F 5

$$$$
