research/ai4chem/closed_loop/ipf_cycle1/docking_1vjy/cand_0019_dock.pdbqt
 OpenBabel03012623503D

 25 26  0  0  1  0  0  0  0  0999 V2000
   17.9280   67.5590    9.0110 C   0  0  0  0  0  2  0  0  0  0  0  0
   17.1680   68.7660    8.8390 O   0  0  0  0  0  0  0  0  0  0  0  0
   16.9450   69.1400    7.5420 C   0  0  0  0  0  3  0  0  0  0  0  0
   16.4920   68.2460    6.6460 C   0  0  0  0  0  3  0  0  0  0  0  0
   16.3690   68.4570    5.2210 C   0  0  0  0  0  3  0  0  0  0  0  0
   20.4940   68.1190    6.0970 C   0  0  0  0  0  2  0  0  0  0  0  0
   19.7620   68.6140    5.0910 C   0  0  0  0  0  0  0  0  0  0  0  0
   18.6330   67.8830    4.6510 O   0  0  0  0  0  0  0  0  0  0  0  0
   20.2820   69.6720    4.1790 C   0  0  1  0  0  3  0  0  0  0  0  0
   17.3770   68.4230    4.3200 C   0  0  0  0  0  0  0  0  0  0  0  0
   21.4900   69.4920    3.4830 C   0  0  0  0  0  2  0  0  0  0  0  0
   19.2900   70.3650    3.5450 C   0  0  0  0  0  2  0  0  0  0  0  0
   17.0850   68.7100    2.9860 N   0  0  0  0  0  0  0  0  0  0  0  0
   21.4970   69.6400    2.0930 C   0  0  0  0  0  3  0  0  0  0  0  0
   19.1340   69.9130    2.2520 C   0  0  2  0  0  3  0  0  0  0  0  0
   17.8420   69.2530    1.9460 C   0  0  0  0  0  0  0  0  0  0  0  0
   20.2590   69.7100    1.4590 C   0  0  0  0  0  3  0  0  0  0  0  0
   17.4250   69.2490    0.7930 O   0  0  0  0  0  0  0  0  0  0  0  0
   16.1190   68.5950    2.7030 H   0  0  0  0  0  0  0  0  0  0  0  0
   18.6360   67.6550   10.3690 C   0  0  0  0  0  2  0  0  0  0  0  0
   19.9410   68.4020   10.3280 C   0  0  0  0  0  3  0  0  0  0  0  0
   20.2980   69.3370   11.2260 C   0  0  0  0  0  3  0  0  0  0  0  0
   21.5410   70.0720   11.1450 C   0  0  0  0  0  3  0  0  0  0  0  0
   21.7340   71.1020   10.3070 C   0  0  0  0  0  3  0  0  0  0  0  0
   23.0090   71.8750   10.2210 C   0  0  0  0  0  1  0  0  0  0  0  0
  1 20  1  0  0  0  0
  2  1  1  0  0  0  0
  3  2  1  0  0  0  0
  4  3  2  0  0  0  0
  5  4  1  0  0  0  0
  7  6  2  0  0  0  0
  8  7  1  0  0  0  0
  9 11  1  6  0  0  0
  9  7  1  0  0  0  0
 10  8  1  0  0  0  0
 10  5  2  0  0  0  0
 12  9  1  0  0  0  0
 13 10  1  0  0  0  0
 14 11  1  0  0  0  0
 15 17  1  1  0  0  0
 15 12  1  0  0  0  0
 16 15  1  0  0  0  0
 16 13  1  0  0  0  0
 17 14  2  0  0  0  0
 18 16  2  0  0  0  0
 19 13  1  0  0  0  0
 21 20  1  0  0  0  0
 21 22  2  0  0  0  0
 23 22  1  0  0  0  0
 24 23  2  0  0  0  0
 25 24  1  0  0  0  0
M  END
>  <MODEL>
1

>  <REMARK>
 VINA RESULT:    -8.304      0.000      0.000
 INTER + INTRA:         -11.972
 INTER:                 -11.217
 INTRA:                  -0.755
 UNBOUND:                -0.755
 SMILES C=C1O/C(=C\C=C\OCC/C=C/C=C/C)NC(=O)c2cccc1c2
 SMILES IDX 9 1 8 2 7 3 6 4 5 5 1 6 2 7 3 8 23 9 4 10 22 11 24 12 16 13
 SMILES IDX 21 14 19 15 17 16 20 17 18 18 10 20 11 21 12 22 13 23 14 24
 SMILES IDX 15 25
 H PARENT 16 19

>  <TORSDO>
F 6

$$$$
research/ai4chem/closed_loop/ipf_cycle1/docking_1vjy/cand_0019_dock.pdbqt
 OpenBabel03012623503D

 25 26  0  0  1  0  0  0  0  0999 V2000
   15.3010   67.7030    3.6760 C   0  0  0  0  0  2  0  0  0  0  0  0
   16.3440   68.4560    4.3180 O   0  0  0  0  0  0  0  0  0  0  0  0
   16.5690   68.1470    5.6310 C   0  0  0  0  0  3  0  0  0  0  0  0
   16.0720   68.9280    6.6060 C   0  0  0  0  0  3  0  0  0  0  0  0
   16.3650   68.8150    8.0180 C   0  0  0  0  0  3  0  0  0  0  0  0
   19.9710   69.8410    6.0580 C   0  0  0  0  0  2  0  0  0  0  0  0
   19.6370   69.3030    7.2370 C   0  0  0  0  0  0  0  0  0  0  0  0
   18.5360   69.8450    7.9420 O   0  0  0  0  0  0  0  0  0  0  0  0
   20.5760   68.4390    8.0080 C   0  0  1  0  0  3  0  0  0  0  0  0
   17.5430   69.1100    8.6140 C   0  0  0  0  0  0  0  0  0  0  0  0
   21.8600   68.8970    8.3480 C   0  0  0  0  0  2  0  0  0  0  0  0
   19.9410   67.6280    8.9050 C   0  0  0  0  0  2  0  0  0  0  0  0
   17.6670   68.8840    9.9850 N   0  0  0  0  0  0  0  0  0  0  0  0
   22.2540   68.8680    9.6890 C   0  0  0  0  0  3  0  0  0  0  0  0
   20.0350   68.1470   10.1780 C   0  0  2  0  0  3  0  0  0  0  0  0
   18.7600   68.5780   10.8000 C   0  0  0  0  0  0  0  0  0  0  0  0
   21.2620   68.6200   10.6340 C   0  0  0  0  0  3  0  0  0  0  0  0
   18.6610   68.6000   12.0220 O   0  0  0  0  0  0  0  0  0  0  0  0
   16.8040   68.8390   10.5140 H   0  0  0  0  0  0  0  0  0  0  0  0
   15.4210   66.2520    4.1610 C   0  0  0  0  0  2  0  0  0  0  0  0
   14.1020   65.5960    4.4660 C   0  0  0  0  0  3  0  0  0  0  0  0
   13.6750   64.4640    3.8820 C   0  0  0  0  0  3  0  0  0  0  0  0
   12.3840   63.8730    4.1620 C   0  0  0  0  0  3  0  0  0  0  0  0
   11.3860   64.5370    4.7650 C   0  0  0  0  0  3  0  0  0  0  0  0
   10.0460   63.9410    5.0510 C   0  0  0  0  0  1  0  0  0  0  0  0
  1 20  1  0  0  0  0
  1  2  1  0  0  0  0
  2  3  1  0  0  0  0
  3  4  2  0  0  0  0
  4  5  1  0  0  0  0
  5 10  2  0  0  0  0
  6  7  2  0  0  0  0
  7  8  1  0  0  0  0
  7  9  1  0  0  0  0
  8 10  1  0  0  0  0
  9 11  1  1  0  0  0
  9 12  1  0  0  0  0
 10 13  1  0  0  0  0
 11 14  1  0  0  0  0
 13 19  1  0  0  0  0
 13 16  1  0  0  0  0
 14 17  2  0  0  0  0
 15 12  1  6  0  0  0
 15 17  1  0  0  0  0
 15 16  1  0  0  0  0
 16 18  2  0  0  0  0
 20 21  1  0  0  0  0
 22 23  1  0  0  0  0
 22 21  2  0  0  0  0
 23 24  2  0  0  0  0
 24 25  1  0  0  0  0
M  END
>  <MODEL>
2

>  <REMARK>
 VINA RESULT:    -8.254      3.476      7.949
 INTER + INTRA:         -11.905
 INTER:                 -11.317
 INTRA:                  -0.588
 UNBOUND:                -0.755
 SMILES C=C1O/C(=C\C=C\OCC/C=C/C=C/C)NC(=O)c2cccc1c2
 SMILES IDX 9 1 8 2 7 3 6 4 5 5 1 6 2 7 3 8 23 9 4 10 22 11 24 12 16 13
 SMILES IDX 21 14 19 15 17 16 20 17 18 18 10 20 11 21 12 22 13 23 14 24
 SMILES IDX 15 25
 H PARENT 16 19

>  <TORSDO>
F 6

$$$$
research/ai4chem/closed_loop/ipf_cycle1/docking_1vjy/cand_0019_dock.pdbqt
 OpenBabel03012623503D

 25 26  0  0  1  0  0  0  0  0999 V2000
   15.3630   67.9900    4.1170 C   0  0  0  0  0  2  0  0  0  0  0  0
   16.3890   68.4550    3.2250 O   0  0  0  0  0  0  0  0  0  0  0  0
   17.5190   68.9340    3.8280 C   0  0  0  0  0  3  0  0  0  0  0  0
   18.6610   68.2240    3.7910 C   0  0  0  0  0  3  0  0  0  0  0  0
   19.8740   68.5270    4.5180 C   0  0  0  0  0  3  0  0  0  0  0  0
   16.9230   67.4900    7.3660 C   0  0  0  0  0  2  0  0  0  0  0  0
   18.0890   68.1480    7.3850 C   0  0  0  0  0  0  0  0  0  0  0  0
   19.1710   67.6300    6.6350 O   0  0  0  0  0  0  0  0  0  0  0  0
   18.4120   69.1550    8.4350 C   0  0  1  0  0  3  0  0  0  0  0  0
   20.0640   68.3800    5.8480 C   0  0  0  0  0  0  0  0  0  0  0  0
   18.3430   68.8220    9.7980 C   0  0  0  0  0  2  0  0  0  0  0  0
   19.3890   70.0300    8.0510 C   0  0  0  0  0  2  0  0  0  0  0  0
   21.2860   68.7790    6.3920 N   0  0  0  0  0  0  0  0  0  0  0  0
   19.4650   69.0400   10.6040 C   0  0  0  0  0  3  0  0  0  0  0  0
   20.6010   69.6780    8.6070 C   0  0  2  0  0  3  0  0  0  0  0  0
   21.6530   69.2490    7.6550 C   0  0  0  0  0  0  0  0  0  0  0  0
   20.6600   69.3400    9.9560 C   0  0  0  0  0  3  0  0  0  0  0  0
   22.8330   69.3710    7.9640 O   0  0  0  0  0  0  0  0  0  0  0  0
   22.0670   68.8350    5.7490 H   0  0  0  0  0  0  0  0  0  0  0  0
   15.4730   66.4610    4.1820 C   0  0  0  0  0  2  0  0  0  0  0  0
   14.1800   65.7660    4.5130 C   0  0  0  0  0  3  0  0  0  0  0  0
   13.7900   64.6050    3.9590 C   0  0  0  0  0  3  0  0  0  0  0  0
   12.5230   63.9750    4.2630 C   0  0  0  0  0  3  0  0  0  0  0  0
   11.4430   64.6560    4.6750 C   0  0  0  0  0  3  0  0  0  0  0  0
   10.1270   64.0180    4.9820 C   0  0  0  0  0  1  0  0  0  0  0  0
  1 20  1  0  0  0  0
  2  3  1  0  0  0  0
  2  1  1  0  0  0  0
  4  3  2  0  0  0  0
  4  5  1  0  0  0  0
  5 10  2  0  0  0  0
  6  7  2  0  0  0  0
  7  9  1  0  0  0  0
  8  7  1  0  0  0  0
  9 12  1  6  0  0  0
  9 11  1  0  0  0  0
 10 13  1  0  0  0  0
 10  8  1  0  0  0  0
 11 14  1  0  0  0  0
 13 16  1  0  0  0  0
 15 12  1  6  0  0  0
 15 17  1  0  0  0  0
 16 18  2  0  0  0  0
 16 15  1  0  0  0  0
 17 14  2  0  0  0  0
 19 13  1  0  0  0  0
 20 21  1  0  0  0  0
 22 23  1  0  0  0  0
 22 21  2  0  0  0  0
 23 24  2  0  0  0  0
 24 25  1  0  0  0  0
M  END
>  <MODEL>
3

>  <REMARK>
 VINA RESULT:    -8.231      3.416      7.699
 INTER + INTRA:         -11.874
 INTER:                 -11.198
 INTRA:                  -0.676
 UNBOUND:                -0.755
 SMILES C=C1O/C(=C\C=C\OCC/C=C/C=C/C)NC(=O)c2cccc1c2
 SMILES IDX 9 1 8 2 7 3 6 4 5 5 1 6 2 7 3 8 23 9 4 10 22 11 24 12 16 13
 SMILES IDX 21 14 19 15 17 16 20 17 18 18 10 20 11 21 12 22 13 23 14 24
 SMILES IDX 15 25
 H PARENT 16 19

>  <TORSDO>
F 6

$$$$
research/ai4chem/closed_loop/ipf_cycle1/docking_1vjy/cand_0019_dock.pdbqt
 OpenBabel03012623503D

 25 26  0  0  1  0  0  0  0  0999 V2000
   15.3130   68.3850    2.9970 C   0  0  0  0  0  2  0  0  0  0  0  0
   16.2070   67.4800    3.6650 O   0  0  0  0  0  0  0  0  0  0  0  0
   16.0250   67.3660    5.0160 C   0  0  0  0  0  3  0  0  0  0  0  0
   16.7510   68.1150    5.8640 C   0  0  0  0  0  3  0  0  0  0  0  0
   16.7810   67.9830    7.3040 C   0  0  0  0  0  3  0  0  0  0  0  0
   19.9150   70.6060    6.2120 C   0  0  0  0  0  2  0  0  0  0  0  0
   19.6190   69.8550    7.2790 C   0  0  0  0  0  0  0  0  0  0  0  0
   18.2770   69.8170    7.7280 O   0  0  0  0  0  0  0  0  0  0  0  0
   20.6650   69.3780    8.2270 C   0  0  1  0  0  3  0  0  0  0  0  0
   17.5800   68.6700    8.1520 C   0  0  0  0  0  0  0  0  0  0  0  0
   21.5380   70.2840    8.8520 C   0  0  0  0  0  2  0  0  0  0  0  0
   20.2720   68.2860    8.9490 C   0  0  0  0  0  2  0  0  0  0  0  0
   17.5170   68.3700    9.5130 N   0  0  0  0  0  0  0  0  0  0  0  0
   21.6360   70.2760   10.2470 C   0  0  0  0  0  3  0  0  0  0  0  0
   19.8850   68.6570   10.2180 C   0  0  2  0  0  3  0  0  0  0  0  0
   18.4530   68.4570   10.5460 C   0  0  0  0  0  0  0  0  0  0  0  0
   20.6790   69.5420   10.9430 C   0  0  0  0  0  3  0  0  0  0  0  0
   18.1180   68.3040   11.7150 O   0  0  0  0  0  0  0  0  0  0  0  0
   16.6700   67.9180    9.8350 H   0  0  0  0  0  0  0  0  0  0  0  0
   16.1560   69.2320    2.0340 C   0  0  0  0  0  2  0  0  0  0  0  0
   17.6310   68.9410    2.0920 C   0  0  0  0  0  3  0  0  0  0  0  0
   18.5570   69.8360    2.4780 C   0  0  0  0  0  3  0  0  0  0  0  0
   19.9750   69.5470    2.4890 C   0  0  0  0  0  3  0  0  0  0  0  0
   20.8060   69.9090    1.5000 C   0  0  0  0  0  3  0  0  0  0  0  0
   22.2740   69.6250    1.5030 C   0  0  0  0  0  1  0  0  0  0  0  0
  1  2  1  0  0  0  0
  2  3  1  0  0  0  0
  3  4  2  0  0  0  0
  4  5  1  0  0  0  0
  5 10  2  0  0  0  0
  6  7  2  0  0  0  0
  7  8  1  0  0  0  0
  7  9  1  0  0  0  0
  8 10  1  0  0  0  0
  9 11  1  1  0  0  0
  9 12  1  0  0  0  0
 10 13  1  0  0  0  0
 11 14  1  0  0  0  0
 13 19  1  0  0  0  0
 13 16  1  0  0  0  0
 14 17  2  0  0  0  0
 15 12  1  6  0  0  0
 15 16  1  0  0  0  0
 15 17  1  0  0  0  0
 16 18  2  0  0  0  0
 20 21  1  0  0  0  0
 20  1  1  0  0  0  0
 21 22  2  0  0  0  0
 22 23  1  0  0  0  0
 24 25  1  0  0  0  0
 24 23  2  0  0  0  0
M  END
>  <MODEL>
4

>  <REMARK>
 VINA RESULT:    -8.188      2.052      6.898
 INTER + INTRA:         -11.816
 INTER:                 -10.959
 INTRA:                  -0.857
 UNBOUND:                -0.755
 SMILES C=C1O/C(=C\C=C\OCC/C=C/C=C/C)NC(=O)c2cccc1c2
 SMILES IDX 9 1 8 2 7 3 6 4 5 5 1 6 2 7 3 8 23 9 4 10 22 11 24 12 16 13
 SMILES IDX 21 14 19 15 17 16 20 17 18 18 10 20 11 21 12 22 13 23 14 24
 SMILES IDX 15 25
 H PARENT 16 19

>  <TORSDO>
F 6

$$$$
research/ai4chem/closed_loop/ipf_cycle1/docking_1vjy/cand_0019_dock.pdbqt
 OpenBabel03012623503D

 25 26  0  0  1  0  0  0  0  0999 V2000
   15.0540   67.8650    4.4310 C   0  0  0  0  0  2  0  0  0  0  0  0
   15.5980   68.1570    3.1330 O   0  0  0  0  0  0  0  0  0  0  0  0
   16.7860   68.8350    3.1340 C   0  0  0  0  0  3  0  0  0  0  0  0
   17.9420   68.1790    2.9280 C   0  0  0  0  0  3  0  0  0  0  0  0
   19.2710   68.7340    3.0640 C   0  0  0  0  0  3  0  0  0  0  0  0
   17.8630   67.8630    6.9570 C   0  0  0  0  0  2  0  0  0  0  0  0
   18.8160   68.6420    6.4310 C   0  0  0  0  0  0  0  0  0  0  0  0
   19.5980   68.1310    5.3680 O   0  0  0  0  0  0  0  0  0  0  0  0
   19.3420   69.8410    7.1440 C   0  0  1  0  0  3  0  0  0  0  0  0
   19.9790   68.8350    4.2110 C   0  0  0  0  0  0  0  0  0  0  0  0
   19.8590   69.7350    8.4460 C   0  0  0  0  0  3  0  0  0  0  0  0
   19.9320   70.7440    6.3050 C   0  0  0  0  0  2  0  0  0  0  0  0
   21.2280   69.4550    4.1660 N   0  0  0  0  0  0  0  0  0  0  0  0
   21.1490   70.2100    8.7000 C   0  0  0  0  0  3  0  0  0  0  0  0
   21.3040   70.6290    6.3580 C   0  0  2  0  0  3  0  0  0  0  0  0
   21.9670   70.1680    5.1140 C   0  0  0  0  0  0  0  0  0  0  0  0
   21.9340   70.5300    7.5960 C   0  0  0  0  0  2  0  0  0  0  0  0
   23.1350   70.4730    4.9040 O   0  0  0  0  0  0  0  0  0  0  0  0
   21.6810   69.4900    3.2610 H   0  0  0  0  0  0  0  0  0  0  0  0
   15.3010   66.3750    4.7040 C   0  0  0  0  0  2  0  0  0  0  0  0
   14.0500   65.5890    4.9910 C   0  0  0  0  0  3  0  0  0  0  0  0
   13.4800   64.7430    4.1160 C   0  0  0  0  0  3  0  0  0  0  0  0
   12.2550   64.0270    4.3990 C   0  0  0  0  0  3  0  0  0  0  0  0
   11.1650   64.6110    4.9200 C   0  0  0  0  0  3  0  0  0  0  0  0
    9.8910   63.8850    5.2070 C   0  0  0  0  0  1  0  0  0  0  0  0
  1 20  1  0  0  0  0
  2  3  1  0  0  0  0
  2  1  1  0  0  0  0
  4  5  1  0  0  0  0
  4  3  2  0  0  0  0
  5 10  2  0  0  0  0
  7  6  2  0  0  0  0
  7  9  1  0  0  0  0
  8  7  1  0  0  0  0
  9 12  1  6  0  0  0
  9 11  1  0  0  0  0
 10  8  1  0  0  0  0
 11 14  2  0  0  0  0
 13 10  1  0  0  0  0
 13 16  1  0  0  0  0
 15 12  1  1  0  0  0
 15 17  1  0  0  0  0
 16 15  1  0  0  0  0
 17 14  1  0  0  0  0
 18 16  2  0  0  0  0
 19 13  1  0  0  0  0
 20 21  1  0  0  0  0
 22 23  1  0  0  0  0
 22 21  2  0  0  0  0
 23 24  2  0  0  0  0
 24 25  1  0  0  0  0
M  END
>  <MODEL>
5

>  <REMARK>
 VINA RESULT:    -8.073      3.505      7.156
 INTER + INTRA:         -11.660
 INTER:                 -10.995
 INTRA:                  -0.666
 UNBOUND:                -0.755
 SMILES C=C1O/C(=C\C=C\OCC/C=C/C=C/C)NC(=O)c2cccc1c2
 SMILES IDX 9 1 8 2 7 3 6 4 5 5 1 6 2 7 3 8 23 9 4 10 22 11 24 12 16 13
 SMILES IDX 21 14 19 15 17 16 20 17 18 18 10 20 11 21 12 22 13 23 14 24
 SMILES IDX 15 25
 H PARENT 16 19

>  <TORSDO>
F 6

$$$$
research/ai4chem/closed_loop/ipf_cycle1/docking_1vjy/cand_0019_dock.pdbqt
 OpenBabel03012623503D

 25 26  0  0  1  0  0  0  0  0999 V2000
   22.3890   69.6810   11.2890 C   0  0  0  0  0  2  0  0  0  0  0  0
   22.3760   70.9870   10.6880 O   0  0  0  0  0  0  0  0  0  0  0  0
   22.6480   71.0200    9.3490 C   0  0  0  0  0  3  0  0  0  0  0  0
   21.7040   70.6770    8.4550 C   0  0  0  0  0  3  0  0  0  0  0  0
   21.8990   70.5090    7.0320 C   0  0  0  0  0  3  0  0  0  0  0  0
   17.7700   70.0110    7.8060 C   0  0  0  0  0  2  0  0  0  0  0  0
   18.6090   69.6820    6.8170 C   0  0  0  0  0  0  0  0  0  0  0  0
   19.5800   70.6270    6.4090 O   0  0  0  0  0  0  0  0  0  0  0  0
   18.3310   68.5510    5.8860 C   0  0  1  0  0  3  0  0  0  0  0  0
   20.9260   70.3510    6.1070 C   0  0  0  0  0  0  0  0  0  0  0  0
   17.1290   68.4940    5.1620 C   0  0  0  0  0  3  0  0  0  0  0  0
   19.4560   68.0750    5.2740 C   0  0  0  0  0  2  0  0  0  0  0  0
   21.3010   70.1410    4.7790 N   0  0  0  0  0  0  0  0  0  0  0  0
   17.1840   68.3620    3.7710 C   0  0  0  0  0  3  0  0  0  0  0  0
   19.5500   68.5620    3.9880 C   0  0  2  0  0  3  0  0  0  0  0  0
   20.6910   69.4690    3.7170 C   0  0  0  0  0  0  0  0  0  0  0  0
   18.4250   68.5450    3.1680 C   0  0  0  0  0  2  0  0  0  0  0  0
   21.1260   69.5680    2.5750 O   0  0  0  0  0  0  0  0  0  0  0  0
   22.2310   70.4480    4.5200 H   0  0  0  0  0  0  0  0  0  0  0  0
   21.0290   69.4780   11.9700 C   0  0  0  0  0  2  0  0  0  0  0  0
   20.0880   68.5860   11.2070 C   0  0  0  0  0  3  0  0  0  0  0  0
   20.4310   67.9120   10.0960 C   0  0  0  0  0  3  0  0  0  0  0  0
   19.4980   67.0900    9.3550 C   0  0  0  0  0  3  0  0  0  0  0  0
   18.1990   66.9830    9.6740 C   0  0  0  0  0  3  0  0  0  0  0  0
   17.2230   66.1460    8.9110 C   0  0  0  0  0  1  0  0  0  0  0  0
  1 20  1  0  0  0  0
  2  1  1  0  0  0  0
  3  2  1  0  0  0  0
  4  3  2  0  0  0  0
  5  4  1  0  0  0  0
  7  6  2  0  0  0  0
  8  7  1  0  0  0  0
  9 11  1  6  0  0  0
  9  7  1  0  0  0  0
 10  8  1  0  0  0  0
 10  5  2  0  0  0  0
 12  9  1  0  0  0  0
 13 10  1  0  0  0  0
 14 11  2  0  0  0  0
 15 17  1  1  0  0  0
 15 12  1  0  0  0  0
 16 15  1  0  0  0  0
 16 13  1  0  0  0  0
 17 14  1  0  0  0  0
 18 16  2  0  0  0  0
 19 13  1  0  0  0  0
 21 20  1  0  0  0  0
 22 21  2  0  0  0  0
 23 24  2  0  0  0  0
 23 22  1  0  0  0  0
 25 24  1  0  0  0  0
M  END
>  <MODEL>
6

>  <REMARK>
 VINA RESULT:    -8.039      2.268      4.496
 INTER + INTRA:         -11.614
 INTER:                 -10.013
 INTRA:                  -1.600
 UNBOUND:                -0.755
 SMILES C=C1O/C(=C\C=C\OCC/C=C/C=C/C)NC(=O)c2cccc1c2
 SMILES IDX 9 1 8 2 7 3 6 4 5 5 1 6 2 7 3 8 23 9 4 10 22 11 24 12 16 13
 SMILES IDX 21 14 19 15 17 16 20 17 18 18 10 20 11 21 12 22 13 23 14 24
 SMILES IDX 15 25
 H PARENT 16 19

>  <TORSDO>
F 6

$$$$
research/ai4chem/closed_loop/ipf_cycle1/docking_1vjy/cand_0019_dock.pdbqt
 OpenBabel03012623503D

 25 26  0  0  1  0  0  0  0  0999 V2000
   22.4810   69.8130    7.8060 C   0  0  0  0  0  2  0  0  0  0  0  0
   21.8430   69.4680    9.0470 O   0  0  0  0  0  0  0  0  0  0  0  0
   20.4800   69.3710    9.0000 C   0  0  0  0  0  3  0  0  0  0  0  0
   19.8580   68.2930    9.5090 C   0  0  0  0  0  3  0  0  0  0  0  0
   18.4510   67.9840    9.3830 C   0  0  0  0  0  3  0  0  0  0  0  0
   20.1380   67.7930    5.5080 C   0  0  0  0  0  2  0  0  0  0  0  0
   18.9070   67.9280    6.0150 C   0  0  0  0  0  0  0  0  0  0  0  0
   18.5450   67.1400    7.1330 O   0  0  0  0  0  0  0  0  0  0  0  0
   17.7990   68.5620    5.2450 C   0  0  1  0  0  3  0  0  0  0  0  0
   17.8210   67.5830    8.2560 C   0  0  0  0  0  0  0  0  0  0  0  0
   17.4450   68.0890    3.9710 C   0  0  0  0  0  2  0  0  0  0  0  0
   16.7920   69.0260    6.0440 C   0  0  0  0  0  2  0  0  0  0  0  0
   16.4400   67.3850    8.3020 N   0  0  0  0  0  0  0  0  0  0  0  0
   16.1160   67.7270    3.7290 C   0  0  0  0  0  3  0  0  0  0  0  0
   15.7300   68.1490    6.0440 C   0  0  2  0  0  3  0  0  0  0  0  0
   15.4360   67.4830    7.3360 C   0  0  0  0  0  0  0  0  0  0  0  0
   15.2790   67.6230    4.8370 C   0  0  0  0  0  3  0  0  0  0  0  0
   14.3000   67.0840    7.5650 O   0  0  0  0  0  0  0  0  0  0  0  0
   16.0400   67.2210    9.2180 H   0  0  0  0  0  0  0  0  0  0  0  0
   21.5620   70.8050    7.0810 C   0  0  0  0  0  2  0  0  0  0  0  0
   21.6710   70.7590    5.5810 C   0  0  0  0  0  3  0  0  0  0  0  0
   22.7440   70.2880    4.9220 C   0  0  0  0  0  3  0  0  0  0  0  0
   22.8430   70.2890    3.4780 C   0  0  0  0  0  3  0  0  0  0  0  0
   21.8540   69.8750    2.6730 C   0  0  0  0  0  3  0  0  0  0  0  0
   21.9400   69.8810    1.1810 C   0  0  0  0  0  1  0  0  0  0  0  0
  1  2  1  0  0  0  0
  3  2  1  0  0  0  0
  3  4  2  0  0  0  0
  5  4  1  0  0  0  0
  6  7  2  0  0  0  0
  7  8  1  0  0  0  0
  8 10  1  0  0  0  0
  9 11  1  6  0  0  0
  9  7  1  0  0  0  0
  9 12  1  0  0  0  0
 10 13  1  0  0  0  0
 10  5  2  0  0  0  0
 12 15  1  0  0  0  0
 13 19  1  0  0  0  0
 14 11  1  0  0  0  0
 14 17  2  0  0  0  0
 15 17  1  6  0  0  0
 15 16  1  0  0  0  0
 16 18  2  0  0  0  0
 16 13  1  0  0  0  0
 20  1  1  0  0  0  0
 21 20  1  0  0  0  0
 22 21  2  0  0  0  0
 23 22  1  0  0  0  0
 24 23  2  0  0  0  0
 25 24  1  0  0  0  0
M  END
>  <MODEL>
7

>  <REMARK>
 VINA RESULT:    -8.016      2.551      5.480
 INTER + INTRA:         -11.583
 INTER:                 -10.558
 INTRA:                  -1.025
 UNBOUND:                -0.755
 SMILES C=C1O/C(=C\C=C\OCC/C=C/C=C/C)NC(=O)c2cccc1c2
 SMILES IDX 9 1 8 2 7 3 6 4 5 5 1 6 2 7 3 8 23 9 4 10 22 11 24 12 16 13
 SMILES IDX 21 14 19 15 17 16 20 17 18 18 10 20 11 21 12 22 13 23 14 24
 SMILES IDX 15 25
 H PARENT 16 19

>  <TORSDO>
F 6

$$$$
research/ai4chem/closed_loop/ipf_cycle1/docking_1vjy/cand_0019_dock.pdbqt
 OpenBabel03012623503D

 25 26  0  0  1  0  0  0  0  0999 V2000
   19.8930   70.1350    2.1260 C   0  0  0  0  0  2  0  0  0  0  0  0
   20.8590   69.1830    2.6020 O   0  0  0  0  0  0  0  0  0  0  0  0
   21.5960   69.5840    3.6820 C   0  0  0  0  0  3  0  0  0  0  0  0
   21.0170   70.2710    4.6820 C   0  0  0  0  0  3  0  0  0  0  0  0
   21.7000   70.8940    5.7940 C   0  0  0  0  0  3  0  0  0  0  0  0
   19.8360   67.3900    7.2590 C   0  0  0  0  0  2  0  0  0  0  0  0
   20.3180   68.5180    7.7940 C   0  0  0  0  0  0  0  0  0  0  0  0
   21.5430   69.0300    7.3050 O   0  0  0  0  0  0  0  0  0  0  0  0
   19.8430   69.0380    9.1080 C   0  0  1  0  0  3  0  0  0  0  0  0
   21.8260   70.3830    7.0390 C   0  0  0  0  0  0  0  0  0  0  0  0
   19.8840   68.2320   10.2580 C   0  0  0  0  0  2  0  0  0  0  0  0
   20.0770   70.3740    9.2690 C   0  0  0  0  0  2  0  0  0  0  0  0
   22.4700   71.1520    8.0100 N   0  0  0  0  0  0  0  0  0  0  0  0
   20.5430   68.7100   11.3950 C   0  0  0  0  0  3  0  0  0  0  0  0
   21.1860   70.5800   10.0620 C   0  0  2  0  0  3  0  0  0  0  0  0
   22.3490   71.2170    9.4000 C   0  0  0  0  0  0  0  0  0  0  0  0
   21.3310   69.8480   11.2370 C   0  0  0  0  0  3  0  0  0  0  0  0
   23.1550   71.8490   10.0740 O   0  0  0  0  0  0  0  0  0  0  0  0
   23.0910   71.8760    7.6710 H   0  0  0  0  0  0  0  0  0  0  0  0
   18.5430   69.4100    2.0410 C   0  0  0  0  0  2  0  0  0  0  0  0
   17.9660   69.0280    3.3770 C   0  0  0  0  0  3  0  0  0  0  0  0
   16.8780   68.2540    3.5290 C   0  0  0  0  0  3  0  0  0  0  0  0
   16.3170   67.9320    4.8240 C   0  0  0  0  0  3  0  0  0  0  0  0
   16.6200   68.6040    5.9440 C   0  0  0  0  0  3  0  0  0  0  0  0
   16.0400   68.2880    7.2850 C   0  0  0  0  0  1  0  0  0  0  0  0
  1  2  1  0  0  0  0
  2  3  1  0  0  0  0
  3  4  2  0  0  0  0
  4  5  1  0  0  0  0
  5 10  2  0  0  0  0
  6  7  2  0  0  0  0
  7  9  1  0  0  0  0
  8  7  1  0  0  0  0
  9 12  1  1  0  0  0
  9 11  1  0  0  0  0
 10  8  1  0  0  0  0
 10 13  1  0  0  0  0
 11 14  1  0  0  0  0
 13 16  1  0  0  0  0
 15 12  1  6  0  0  0
 15 17  1  0  0  0  0
 16 15  1  0  0  0  0
 16 18  2  0  0  0  0
 17 14  2  0  0  0  0
 19 13  1  0  0  0  0
 20  1  1  0  0  0  0
 20 21  1  0  0  0  0
 21 22  2  0  0  0  0
 22 23  1  0  0  0  0
 23 24  2  0  0  0  0
 24 25  1  0  0  0  0
M  END
>  <MODEL>
8

>  <REMARK>
 VINA RESULT:    -7.946      2.656      7.313
 INTER + INTRA:         -11.489
 INTER:                 -10.398
 INTRA:                  -1.092
 UNBOUND:                -0.755
 SMILES C=C1O/C(=C\C=C\OCC/C=C/C=C/C)NC(=O)c2cccc1c2
 SMILES IDX 9 1 8 2 7 3 6 4 5 5 1 6 2 7 3 8 23 9 4 10 22 11 24 12 16 13
 SMILES IDX 21 14 19 15 17 16 20 17 18 18 10 20 11 21 12 22 13 23 14 24
 SMILES IDX 15 25
 H PARENT 16 19

>  <TORSDO>
F 6

$$$$
research/ai4chem/closed_loop/ipf_cycle1/docking_1vjy/cand_0019_dock.pdbqt
 OpenBabel03012623503D

 25 26  0  0  1  0  0  0  0  0999 V2000
   17.7780   68.8800    3.4630 C   0  0  0  0  0  2  0  0  0  0  0  0
   19.2070   69.0310    3.4670 O   0  0  0  0  0  0  0  0  0  0  0  0
   19.7070   69.8610    4.4320 C   0  0  0  0  0  3  0  0  0  0  0  0
   21.0360   69.9890    4.5950 C   0  0  0  0  0  3  0  0  0  0  0  0
   21.6970   70.6960    5.6700 C   0  0  0  0  0  3  0  0  0  0  0  0
   19.8440   67.2850    7.3530 C   0  0  0  0  0  2  0  0  0  0  0  0
   20.3080   68.4530    7.8140 C   0  0  0  0  0  0  0  0  0  0  0  0
   21.5350   68.9420    7.3060 O   0  0  0  0  0  0  0  0  0  0  0  0
   19.8080   69.0600    9.0810 C   0  0  1  0  0  3  0  0  0  0  0  0
   21.8090   70.2750    6.9500 C   0  0  0  0  0  0  0  0  0  0  0  0
   19.8400   68.3380   10.2860 C   0  0  0  0  0  2  0  0  0  0  0  0
   20.0280   70.4060    9.1500 C   0  0  0  0  0  2  0  0  0  0  0  0
   22.4310   71.1170    7.8720 N   0  0  0  0  0  0  0  0  0  0  0  0
   20.4780   68.9020   11.3950 C   0  0  0  0  0  3  0  0  0  0  0  0
   21.1230   70.6790    9.9410 C   0  0  2  0  0  3  0  0  0  0  0  0
   22.2900   71.2800    9.2520 C   0  0  0  0  0  0  0  0  0  0  0  0
   21.2570   70.0330   11.1680 C   0  0  0  0  0  3  0  0  0  0  0  0
   23.0800   71.9660    9.8910 O   0  0  0  0  0  0  0  0  0  0  0  0
   23.0510   71.8220    7.4910 H   0  0  0  0  0  0  0  0  0  0  0  0
   17.3370   68.6690    4.9180 C   0  0  0  0  0  2  0  0  0  0  0  0
   16.1250   67.7900    5.0700 C   0  0  0  0  0  3  0  0  0  0  0  0
   15.7410   66.8790    4.1590 C   0  0  0  0  0  3  0  0  0  0  0  0
   14.5500   66.0720    4.3080 C   0  0  0  0  0  3  0  0  0  0  0  0
   14.4180   64.8490    3.7710 C   0  0  0  0  0  3  0  0  0  0  0  0
   13.1970   64.0010    3.9260 C   0  0  0  0  0  1  0  0  0  0  0  0
  1  2  1  0  0  0  0
  1 20  1  0  0  0  0
  2  3  1  0  0  0  0
  3  4  2  0  0  0  0
  4  5  1  0  0  0  0
  5 10  2  0  0  0  0
  6  7  2  0  0  0  0
  7  9  1  0  0  0  0
  8  7  1  0  0  0  0
  9 12  1  1  0  0  0
  9 11  1  0  0  0  0
 10  8  1  0  0  0  0
 10 13  1  0  0  0  0
 11 14  1  0  0  0  0
 13 16  1  0  0  0  0
 15 12  1  6  0  0  0
 15 17  1  0  0  0  0
 16 18  2  0  0  0  0
 16 15  1  0  0  0  0
 17 14  2  0  0  0  0
 19 13  1  0  0  0  0
 20 21  1  0  0  0  0
 22 23  1  0  0  0  0
 22 21  2  0  0  0  0
 24 25  1  0  0  0  0
 24 23  2  0  0  0  0
M  END
>  <MODEL>
9

>  <REMARK>
 VINA RESULT:    -7.937      3.023      7.666
 INTER + INTRA:         -11.477
 INTER:                 -10.759
 INTRA:                  -0.717
 UNBOUND:                -0.755
 SMILES C=C1O/C(=C\C=C\OCC/C=C/C=C/C)NC(=O)c2cccc1c2
 SMILES IDX 9 1 8 2 7 3 6 4 5 5 1 6 2 7 3 8 23 9 4 10 22 11 24 12 16 13
 SMILES IDX 21 14 19 15 17 16 20 17 18 18 10 20 11 21 12 22 13 23 14 24
 SMILES IDX 15 25
 H PARENT 16 19

>  <TORSDO>
F 6

$$$$
research/ai4chem/closed_loop/ipf_cycle1/docking_1vjy/cand_0019_dock.pdbqt
 OpenBabel03012623503D

 25 26  0  0  1  0  0  0  0  0999 V2000
   21.6410   69.9950    7.4520 C   0  0  0  0  0  2  0  0  0  0  0  0
   20.4430   70.6850    7.8420 O   0  0  0  0  0  0  0  0  0  0  0  0
   19.3560   69.8880    8.0780 C   0  0  0  0  0  3  0  0  0  0  0  0
   18.1220   70.3090    7.7500 C   0  0  0  0  0  3  0  0  0  0  0  0
   16.8800   69.6480    8.0880 C   0  0  0  0  0  3  0  0  0  0  0  0
   18.4770   67.6820    4.6990 C   0  0  0  0  0  2  0  0  0  0  0  0
   17.2740   67.7750    5.2780 C   0  0  0  0  0  0  0  0  0  0  0  0
   17.1960   67.7170    6.6900 O   0  0  0  0  0  0  0  0  0  0  0  0
   16.0100   67.5530    4.5200 C   0  0  1  0  0  3  0  0  0  0  0  0
   16.3890   68.5300    7.5070 C   0  0  0  0  0  0  0  0  0  0  0  0
   15.8000   66.3620    3.8040 C   0  0  0  0  0  2  0  0  0  0  0  0
   14.9230   68.1270    5.1160 C   0  0  0  0  0  2  0  0  0  0  0  0
   15.1410   68.0620    7.9200 N   0  0  0  0  0  0  0  0  0  0  0  0
   14.6480   65.6140    4.0610 C   0  0  0  0  0  3  0  0  0  0  0  0
   14.1880   67.1810    5.7980 C   0  0  2  0  0  3  0  0  0  0  0  0
   14.1400   67.3340    7.2720 C   0  0  0  0  0  0  0  0  0  0  0  0
   13.9040   65.9640    5.1850 C   0  0  0  0  0  3  0  0  0  0  0  0
   13.1890   66.8750    7.8950 O   0  0  0  0  0  0  0  0  0  0  0  0
   14.8270   68.3640    8.8340 H   0  0  0  0  0  0  0  0  0  0  0  0
   22.0680   70.5570    6.0890 C   0  0  0  0  0  2  0  0  0  0  0  0
   21.2120   70.0950    4.9400 C   0  0  0  0  0  3  0  0  0  0  0  0
   21.6380   70.0320    3.6670 C   0  0  0  0  0  3  0  0  0  0  0  0
   20.7860   69.6220    2.5720 C   0  0  0  0  0  3  0  0  0  0  0  0
   19.4920   69.9640    2.4800 C   0  0  0  0  0  3  0  0  0  0  0  0
   18.6030   69.5560    1.3490 C   0  0  0  0  0  1  0  0  0  0  0  0
  1  2  1  0  0  0  0
  2  3  1  0  0  0  0
  4  3  2  0  0  0  0
  4  5  1  0  0  0  0
  6  7  2  0  0  0  0
  7  8  1  0  0  0  0
  8 10  1  0  0  0  0
  9 11  1  1  0  0  0
  9 12  1  0  0  0  0
  9  7  1  0  0  0  0
 10 13  1  0  0  0  0
 10  5  2  0  0  0  0
 11 14  1  0  0  0  0
 13 19  1  0  0  0  0
 14 17  2  0  0  0  0
 15 12  1  1  0  0  0
 15 16  1  0  0  0  0
 16 18  2  0  0  0  0
 16 13  1  0  0  0  0
 17 15  1  0  0  0  0
 20  1  1  0  0  0  0
 21 20  1  0  0  0  0
 22 21  2  0  0  0  0
 23 22  1  0  0  0  0
 24 23  2  0  0  0  0
 25 24  1  0  0  0  0
M  END
>  <MODEL>
10

>  <REMARK>
 VINA RESULT:    -7.921      2.646      6.088
 INTER + INTRA:         -11.454
 INTER:                 -10.581
 INTRA:                  -0.873
 UNBOUND:                -0.755
 SMILES C=C1O/C(=C\C=C\OCC/C=C/C=C/C)NC(=O)c2cccc1c2
 SMILES IDX 9 1 8 2 7 3 6 4 5 5 1 6 2 7 3 8 23 9 4 10 22 11 24 12 16 13
 SMILES IDX 21 14 19 15 17 16 20 17 18 18 10 20 11 21 12 22 13 23 14 24
 SMILES IDX 15 25
 H PARENT 16 19

>  <TORSDO>
F 6

$$$$
research/ai4chem/closed_loop/ipf_cycle1/docking_1vjy/cand_0019_dock.pdbqt
 OpenBabel03012623503D

 25 26  0  0  1  0  0  0  0  0999 V2000
   18.2730   70.4880    2.0220 C   0  0  0  0  0  2  0  0  0  0  0  0
   19.4180   69.7560    1.5530 O   0  0  0  0  0  0  0  0  0  0  0  0
   20.4330   69.6120    2.4580 C   0  0  0  0  0  3  0  0  0  0  0  0
   20.1610   69.4720    3.7670 C   0  0  0  0  0  3  0  0  0  0  0  0
   21.1290   69.4750    4.8420 C   0  0  0  0  0  3  0  0  0  0  0  0
   17.4950   67.9880    6.4180 C   0  0  0  0  0  2  0  0  0  0  0  0
   18.6150   68.5200    6.9220 C   0  0  0  0  0  0  0  0  0  0  0  0
   19.8580   68.1250    6.3730 O   0  0  0  0  0  0  0  0  0  0  0  0
   18.6440   69.1920    8.2520 C   0  0  1  0  0  3  0  0  0  0  0  0
   20.9410   68.9760    6.0850 C   0  0  0  0  0  0  0  0  0  0  0  0
   18.1970   68.5260    9.4050 C   0  0  0  0  0  2  0  0  0  0  0  0
   19.6960   70.0520    8.3920 C   0  0  0  0  0  2  0  0  0  0  0  0
   21.9680   69.1190    7.0190 N   0  0  0  0  0  0  0  0  0  0  0  0
   19.0530   68.4350   10.5070 C   0  0  0  0  0  3  0  0  0  0  0  0
   20.7030   69.4700    9.1310 C   0  0  2  0  0  3  0  0  0  0  0  0
   21.9740   69.2150    8.4120 C   0  0  0  0  0  0  0  0  0  0  0  0
   20.3830   68.7920   10.3040 C   0  0  0  0  0  3  0  0  0  0  0  0
   23.0230   69.1550    9.0440 O   0  0  0  0  0  0  0  0  0  0  0  0
   22.8970   69.2740    6.6460 H   0  0  0  0  0  0  0  0  0  0  0  0
   17.0310   69.6430    1.7060 C   0  0  0  0  0  2  0  0  0  0  0  0
   16.6150   68.7230    2.8220 C   0  0  0  0  0  3  0  0  0  0  0  0
   15.3550   68.2940    3.0090 C   0  0  0  0  0  3  0  0  0  0  0  0
   14.9700   67.4410    4.1130 C   0  0  0  0  0  3  0  0  0  0  0  0
   15.0290   66.1020    4.0630 C   0  0  0  0  0  3  0  0  0  0  0  0
   14.6440   65.2100    5.1990 C   0  0  0  0  0  1  0  0  0  0  0  0
  2  1  1  0  0  0  0
  2  3  1  0  0  0  0
  3  4  2  0  0  0  0
  4  5  1  0  0  0  0
  5 10  2  0  0  0  0
  6  7  2  0  0  0  0
  7  9  1  0  0  0  0
  8  7  1  0  0  0  0
  9 12  1  1  0  0  0
  9 11  1  0  0  0  0
 10  8  1  0  0  0  0
 10 13  1  0  0  0  0
 11 14  1  0  0  0  0
 13 16  1  0  0  0  0
 15 12  1  6  0  0  0
 15 17  1  0  0  0  0
 16 18  2  0  0  0  0
 16 15  1  0  0  0  0
 17 14  2  0  0  0  0
 19 13  1  0  0  0  0
 20  1  1  0  0  0  0
 20 21  1  0  0  0  0
 21 22  2  0  0  0  0
 22 23  1  0  0  0  0
 24 23  2  0  0  0  0
 24 25  1  0  0  0  0
M  END
>  <MODEL>
11

>  <REMARK>
 VINA RESULT:    -7.887      2.513      7.424
 INTER + INTRA:         -11.409
 INTER:                 -10.492
 INTRA:                  -0.917
 UNBOUND:                -0.755
 SMILES C=C1O/C(=C\C=C\OCC/C=C/C=C/C)NC(=O)c2cccc1c2
 SMILES IDX 9 1 8 2 7 3 6 4 5 5 1 6 2 7 3 8 23 9 4 10 22 11 24 12 16 13
 SMILES IDX 21 14 19 15 17 16 20 17 18 18 10 20 11 21 12 22 13 23 14 24
 SMILES IDX 15 25
 H PARENT 16 19

>  <TORSDO>
F 6

$$$$
research/ai4chem/closed_loop/ipf_cycle1/docking_1vjy/cand_0019_dock.pdbqt
 OpenBabel03012623503D

 25 26  0  0  1  0  0  0  0  0999 V2000
   18.2850   67.5640    9.7850 C   0  0  0  0  0  2  0  0  0  0  0  0
   19.3070   66.7260    9.2200 O   0  0  0  0  0  0  0  0  0  0  0  0
   19.7040   67.0570    7.9540 C   0  0  0  0  0  3  0  0  0  0  0  0
   20.0850   68.3150    7.6690 C   0  0  0  0  0  3  0  0  0  0  0  0
   20.3690   68.8400    6.3510 C   0  0  0  0  0  3  0  0  0  0  0  0
   16.1760   68.3610    6.6420 C   0  0  0  0  0  2  0  0  0  0  0  0
   17.0630   68.4850    5.6470 C   0  0  0  0  0  0  0  0  0  0  0  0
   18.1080   69.4280    5.7840 O   0  0  0  0  0  0  0  0  0  0  0  0
   16.7900   67.9700    4.2750 C   0  0  1  0  0  3  0  0  0  0  0  0
   19.4550   69.2260    5.4330 C   0  0  0  0  0  0  0  0  0  0  0  0
   15.6400   68.3660    3.5730 C   0  0  0  0  0  3  0  0  0  0  0  0
   17.9280   67.7610    3.5480 C   0  0  0  0  0  2  0  0  0  0  0  0
   19.9090   69.6550    4.1850 N   0  0  0  0  0  0  0  0  0  0  0  0
   15.7840   68.9180    2.2960 C   0  0  0  0  0  3  0  0  0  0  0  0
   18.1370   68.7990    2.6650 C   0  0  2  0  0  3  0  0  0  0  0  0
   19.3400   69.6290    2.9100 C   0  0  0  0  0  0  0  0  0  0  0  0
   17.0720   69.2700    1.9020 C   0  0  0  0  0  2  0  0  0  0  0  0
   19.8570   70.2320    1.9760 O   0  0  0  0  0  0  0  0  0  0  0  0
   20.8700   69.9730    4.1410 H   0  0  0  0  0  0  0  0  0  0  0  0
   18.7730   68.0090   11.1700 C   0  0  0  0  0  2  0  0  0  0  0  0
   19.8330   69.0760   11.1330 C   0  0  0  0  0  3  0  0  0  0  0  0
   21.1340   68.8500   11.3870 C   0  0  0  0  0  3  0  0  0  0  0  0
   22.1300   69.8990   11.3840 C   0  0  0  0  0  3  0  0  0  0  0  0
   22.1460   70.8960   10.4870 C   0  0  0  0  0  3  0  0  0  0  0  0
   23.1630   71.9910   10.4800 C   0  0  0  0  0  1  0  0  0  0  0  0
  1 20  1  0  0  0  0
  2  1  1  0  0  0  0
  3  2  1  0  0  0  0
  4  3  2  0  0  0  0
  5  4  1  0  0  0  0
  7  8  1  0  0  0  0
  7  6  2  0  0  0  0
  9 12  1  6  0  0  0
  9  7  1  0  0  0  0
 10  8  1  0  0  0  0
 10  5  2  0  0  0  0
 11  9  1  0  0  0  0
 13 10  1  0  0  0  0
 14 11  2  0  0  0  0
 15 17  1  1  0  0  0
 15 16  1  0  0  0  0
 15 12  1  0  0  0  0
 16 13  1  0  0  0  0
 17 14  1  0  0  0  0
 18 16  2  0  0  0  0
 19 13  1  0  0  0  0
 21 20  1  0  0  0  0
 21 22  2  0  0  0  0
 23 22  1  0  0  0  0
 24 23  2  0  0  0  0
 25 24  1  0  0  0  0
M  END
>  <MODEL>
12

>  <REMARK>
 VINA RESULT:    -7.865      1.543      3.033
 INTER + INTRA:         -11.379
 INTER:                 -10.461
 INTRA:                  -0.918
 UNBOUND:                -0.755
 SMILES C=C1O/C(=C\C=C\OCC/C=C/C=C/C)NC(=O)c2cccc1c2
 SMILES IDX 9 1 8 2 7 3 6 4 5 5 1 6 2 7 3 8 23 9 4 10 22 11 24 12 16 13
 SMILES IDX 21 14 19 15 17 16 20 17 18 18 10 20 11 21 12 22 13 23 14 24
 SMILES IDX 15 25
 H PARENT 16 19

>  <TORSDO>
F 6

$$$$
research/ai4chem/closed_loop/ipf_cycle1/docking_1vjy/cand_0019_dock.pdbqt
 OpenBabel03012623503D

 25 26  0  0  1  0  0  0  0  0999 V2000
   19.8710   69.1580   11.2590 C   0  0  0  0  0  2  0  0  0  0  0  0
   20.9560   69.9540   10.7550 O   0  0  0  0  0  0  0  0  0  0  0  0
   21.4060   69.6110    9.5090 C   0  0  0  0  0  3  0  0  0  0  0  0
   21.9820   70.5340    8.7180 C   0  0  0  0  0  3  0  0  0  0  0  0
   22.3510   70.3550    7.3310 C   0  0  0  0  0  3  0  0  0  0  0  0
   18.1260   70.3050    7.5310 C   0  0  0  0  0  2  0  0  0  0  0  0
   19.0510   69.8920    6.6570 C   0  0  0  0  0  0  0  0  0  0  0  0
   20.1640   70.7290    6.4040 O   0  0  0  0  0  0  0  0  0  0  0  0
   18.7830   68.8050    5.6730 C   0  0  1  0  0  3  0  0  0  0  0  0
   21.5020   70.3090    6.2800 C   0  0  0  0  0  0  0  0  0  0  0  0
   17.6920   68.8840    4.7920 C   0  0  0  0  0  3  0  0  0  0  0  0
   19.9240   68.2130    5.2080 C   0  0  0  0  0  2  0  0  0  0  0  0
   22.0300   70.0690    5.0110 N   0  0  0  0  0  0  0  0  0  0  0  0
   17.9220   68.7560    3.4190 C   0  0  0  0  0  3  0  0  0  0  0  0
   20.2440   68.6950    3.9570 C   0  0  2  0  0  3  0  0  0  0  0  0
   21.5020   69.4740    3.8630 C   0  0  0  0  0  0  0  0  0  0  0  0
   19.2460   68.8060    2.9930 C   0  0  0  0  0  2  0  0  0  0  0  0
   22.0960   69.5320    2.7920 O   0  0  0  0  0  0  0  0  0  0  0  0
   23.0140   70.2740    4.8870 H   0  0  0  0  0  0  0  0  0  0  0  0
   19.7440   67.9300   10.3480 C   0  0  0  0  0  2  0  0  0  0  0  0
   18.3330   67.6260    9.9220 C   0  0  0  0  0  3  0  0  0  0  0  0
   18.0190   66.8590    8.8630 C   0  0  0  0  0  3  0  0  0  0  0  0
   16.6550   66.6130    8.4470 C   0  0  0  0  0  3  0  0  0  0  0  0
   16.0110   67.3740    7.5490 C   0  0  0  0  0  3  0  0  0  0  0  0
   14.6060   67.1250    7.1040 C   0  0  0  0  0  1  0  0  0  0  0  0
  2  1  1  0  0  0  0
  3  2  1  0  0  0  0
  4  3  2  0  0  0  0
  5  4  1  0  0  0  0
  7  6  2  0  0  0  0
  8  7  1  0  0  0  0
  9 11  1  6  0  0  0
  9  7  1  0  0  0  0
 10  8  1  0  0  0  0
 10  5  2  0  0  0  0
 12  9  1  0  0  0  0
 13 10  1  0  0  0  0
 14 11  2  0  0  0  0
 15 17  1  1  0  0  0
 15 12  1  0  0  0  0
 16 15  1  0  0  0  0
 16 13  1  0  0  0  0
 17 14  1  0  0  0  0
 18 16  2  0  0  0  0
 19 13  1  0  0  0  0
 20  1  1  0  0  0  0
 21 20  1  0  0  0  0
 22 21  2  0  0  0  0
 23 22  1  0  0  0  0
 24 23  2  0  0  0  0
 25 24  1  0  0  0  0
M  END
>  <MODEL>
13

>  <REMARK>
 VINA RESULT:    -7.751      2.305      4.758
 INTER + INTRA:         -11.225
 INTER:                  -9.602
 INTRA:                  -1.623
 UNBOUND:                -0.755
 SMILES C=C1O/C(=C\C=C\OCC/C=C/C=C/C)NC(=O)c2cccc1c2
 SMILES IDX 9 1 8 2 7 3 6 4 5 5 1 6 2 7 3 8 23 9 4 10 22 11 24 12 16 13
 SMILES IDX 21 14 19 15 17 16 20 17 18 18 10 20 11 21 12 22 13 23 14 24
 SMILES IDX 15 25
 H PARENT 16 19

>  <TORSDO>
F 6

$$$$
research/ai4chem/closed_loop/ipf_cycle1/docking_1vjy/cand_0019_dock.pdbqt
 OpenBabel03012623503D

 25 26  0  0  1  0  0  0  0  0999 V2000
   14.8770   67.2980    7.2940 C   0  0  0  0  0  2  0  0  0  0  0  0
   15.9260   66.8400    8.1630 O   0  0  0  0  0  0  0  0  0  0  0  0
   17.1760   67.3160    7.8760 C   0  0  0  0  0  3  0  0  0  0  0  0
   17.5100   68.5790    8.1920 C   0  0  0  0  0  3  0  0  0  0  0  0
   18.7260   69.2600    7.8050 C   0  0  0  0  0  3  0  0  0  0  0  0
   16.5010   68.5460    4.2780 C   0  0  0  0  0  2  0  0  0  0  0  0
   17.7780   68.8220    4.5700 C   0  0  0  0  0  0  0  0  0  0  0  0
   18.0510   69.7950    5.5600 O   0  0  0  0  0  0  0  0  0  0  0  0
   18.8970   68.4500    3.6580 C   0  0  1  0  0  3  0  0  0  0  0  0
   19.0320   69.7000    6.5630 C   0  0  0  0  0  0  0  0  0  0  0  0
   18.9000   68.8640    2.3160 C   0  0  0  0  0  2  0  0  0  0  0  0
   20.1030   68.3790    4.2960 C   0  0  0  0  0  2  0  0  0  0  0  0
   20.2820   70.2860    6.3570 N   0  0  0  0  0  0  0  0  0  0  0  0
   20.0090   69.5600    1.8260 C   0  0  0  0  0  3  0  0  0  0  0  0
   20.8440   69.5170    4.0600 C   0  0  2  0  0  3  0  0  0  0  0  0
   21.1140   70.3740    5.2390 C   0  0  0  0  0  0  0  0  0  0  0  0
   20.9320   70.0170    2.7630 C   0  0  0  0  0  3  0  0  0  0  0  0
   22.1010   71.1020    5.2420 O   0  0  0  0  0  0  0  0  0  0  0  0
   20.7470   70.6550    7.1780 H   0  0  0  0  0  0  0  0  0  0  0  0
   14.9320   66.4430    6.0210 C   0  0  0  0  0  2  0  0  0  0  0  0
   13.6190   65.8070    5.6510 C   0  0  0  0  0  3  0  0  0  0  0  0
   13.4990   64.7840    4.7880 C   0  0  0  0  0  3  0  0  0  0  0  0
   12.2210   64.2150    4.4170 C   0  0  0  0  0  3  0  0  0  0  0  0
   11.0740   64.5080    5.0480 C   0  0  0  0  0  3  0  0  0  0  0  0
    9.7470   63.9340    4.6680 C   0  0  0  0  0  1  0  0  0  0  0  0
  1  2  1  0  0  0  0
  3  2  1  0  0  0  0
  3  4  2  0  0  0  0
  5  4  1  0  0  0  0
  6  7  2  0  0  0  0
  7  8  1  0  0  0  0
  8 10  1  0  0  0  0
  9 11  1  6  0  0  0
  9 12  1  0  0  0  0
  9  7  1  0  0  0  0
 10  5  2  0  0  0  0
 13 10  1  0  0  0  0
 13 19  1  0  0  0  0
 14 11  1  0  0  0  0
 14 17  2  0  0  0  0
 15 17  1  6  0  0  0
 15 12  1  0  0  0  0
 15 16  1  0  0  0  0
 16 18  2  0  0  0  0
 16 13  1  0  0  0  0
 20  1  1  0  0  0  0
 21 20  1  0  0  0  0
 22 21  2  0  0  0  0
 23 22  1  0  0  0  0
 23 24  2  0  0  0  0
 25 24  1  0  0  0  0
M  END
>  <MODEL>
14

>  <REMARK>
 VINA RESULT:    -7.730      3.341      6.545
 INTER + INTRA:         -11.197
 INTER:                 -10.803
 INTRA:                  -0.394
 UNBOUND:                -0.755
 SMILES C=C1O/C(=C\C=C\OCC/C=C/C=C/C)NC(=O)c2cccc1c2
 SMILES IDX 9 1 8 2 7 3 6 4 5 5 1 6 2 7 3 8 23 9 4 10 22 11 24 12 16 13
 SMILES IDX 21 14 19 15 17 16 20 17 18 18 10 20 11 21 12 22 13 23 14 24
 SMILES IDX 15 25
 H PARENT 16 19

>  <TORSDO>
F 6

$$$$
research/ai4chem/closed_loop/ipf_cycle1/docking_1vjy/cand_0019_dock.pdbqt
 OpenBabel03012623503D

 25 26  0  0  1  0  0  0  0  0999 V2000
   15.3270   67.2140    3.7850 C   0  0  0  0  0  2  0  0  0  0  0  0
   15.0980   67.7700    5.0900 O   0  0  0  0  0  0  0  0  0  0  0  0
   16.1320   68.5020    5.6050 C   0  0  0  0  0  3  0  0  0  0  0  0
   17.3670   68.3920    5.0860 C   0  0  0  0  0  3  0  0  0  0  0  0
   18.5740   68.9760    5.6290 C   0  0  0  0  0  3  0  0  0  0  0  0
   18.5480   69.7690    1.4730 C   0  0  0  0  0  2  0  0  0  0  0  0
   19.4710   69.7460    2.4420 C   0  0  0  0  0  0  0  0  0  0  0  0
   19.1440   70.2980    3.7030 O   0  0  0  0  0  0  0  0  0  0  0  0
   20.9170   69.5280    2.1530 C   0  0  1  0  0  3  0  0  0  0  0  0
   19.4620   69.7420    4.9560 C   0  0  0  0  0  0  0  0  0  0  0  0
   21.6000   70.3470    1.2380 C   0  0  0  0  0  2  0  0  0  0  0  0
   21.6160   69.0790    3.2380 C   0  0  0  0  0  2  0  0  0  0  0  0
   20.6070   70.1730    5.6260 N   0  0  0  0  0  0  0  0  0  0  0  0
   22.7690   70.9930    1.6520 C   0  0  0  0  0  3  0  0  0  0  0  0
   22.3190   70.1120    3.8220 C   0  0  2  0  0  3  0  0  0  0  0  0
   21.8950   70.4940    5.1900 C   0  0  0  0  0  0  0  0  0  0  0  0
   23.0470   70.9830    3.0170 C   0  0  0  0  0  3  0  0  0  0  0  0
   22.7010   71.0280    5.9440 O   0  0  0  0  0  0  0  0  0  0  0  0
   20.5590   70.1850    6.6370 H   0  0  0  0  0  0  0  0  0  0  0  0
   15.3880   65.6880    3.9430 C   0  0  0  0  0  2  0  0  0  0  0  0
   14.1910   65.0950    4.6350 C   0  0  0  0  0  3  0  0  0  0  0  0
   13.2490   64.3680    4.0100 C   0  0  0  0  0  3  0  0  0  0  0  0
   12.0850   63.8390    4.6880 C   0  0  0  0  0  3  0  0  0  0  0  0
   10.9010   64.4710    4.7170 C   0  0  0  0  0  3  0  0  0  0  0  0
    9.6890   63.9310    5.4050 C   0  0  0  0  0  1  0  0  0  0  0  0
  1 20  1  0  0  0  0
  1  2  1  0  0  0  0
  2  3  1  0  0  0  0
  4  3  2  0  0  0  0
  4  5  1  0  0  0  0
  6  7  2  0  0  0  0
  7  8  1  0  0  0  0
  8 10  1  0  0  0  0
  9 11  1  1  0  0  0
  9  7  1  0  0  0  0
  9 12  1  0  0  0  0
 10 13  1  0  0  0  0
 10  5  2  0  0  0  0
 11 14  1  0  0  0  0
 12 15  1  0  0  0  0
 13 19  1  0  0  0  0
 14 17  2  0  0  0  0
 15 17  1  6  0  0  0
 15 16  1  0  0  0  0
 16 13  1  0  0  0  0
 16 18  2  0  0  0  0
 20 21  1  0  0  0  0
 22 21  2  0  0  0  0
 22 23  1  0  0  0  0
 23 24  2  0  0  0  0
 24 25  1  0  0  0  0
M  END
>  <MODEL>
15

>  <REMARK>
 VINA RESULT:    -7.662      3.538      6.936
 INTER + INTRA:         -11.105
 INTER:                 -10.674
 INTRA:                  -0.431
 UNBOUND:                -0.755
 SMILES C=C1O/C(=C\C=C\OCC/C=C/C=C/C)NC(=O)c2cccc1c2
 SMILES IDX 9 1 8 2 7 3 6 4 5 5 1 6 2 7 3 8 23 9 4 10 22 11 24 12 16 13
 SMILES IDX 21 14 19 15 17 16 20 17 18 18 10 20 11 21 12 22 13 23 14 24
 SMILES IDX 15 25
 H PARENT 16 19

>  <TORSDO>
F 6

$$$$
research/ai4chem/closed_loop/ipf_cycle1/docking_1vjy/cand_0019_dock.pdbqt
 OpenBabel03012623503D

 25 26  0  0  1  0  0  0  0  0999 V2000
   17.2860   67.8970    3.1350 C   0  0  0  0  0  2  0  0  0  0  0  0
   18.0960   68.7120    3.9980 O   0  0  0  0  0  0  0  0  0  0  0  0
   18.1220   68.3310    5.3110 C   0  0  0  0  0  3  0  0  0  0  0  0
   17.2280   68.8340    6.1810 C   0  0  0  0  0  3  0  0  0  0  0  0
   17.2400   68.6500    7.6160 C   0  0  0  0  0  3  0  0  0  0  0  0
   20.8100   70.6660    6.5710 C   0  0  0  0  0  2  0  0  0  0  0  0
   20.3820   69.9490    7.6170 C   0  0  0  0  0  0  0  0  0  0  0  0
   19.0600   70.1510    8.0810 O   0  0  0  0  0  0  0  0  0  0  0  0
   21.3230   69.2500    8.5370 C   0  0  1  0  0  3  0  0  0  0  0  0
   18.1600   69.1440    8.4750 C   0  0  0  0  0  0  0  0  0  0  0  0
   22.3560   69.9530    9.1800 C   0  0  0  0  0  2  0  0  0  0  0  0
   20.7340   68.2290    9.2280 C   0  0  0  0  0  2  0  0  0  0  0  0
   18.0490   68.8150    9.8260 N   0  0  0  0  0  0  0  0  0  0  0  0
   22.4580   69.8780   10.5730 C   0  0  0  0  0  3  0  0  0  0  0  0
   20.4310   68.6240   10.5130 C   0  0  2  0  0  3  0  0  0  0  0  0
   18.9900   68.6870   10.8510 C   0  0  0  0  0  0  0  0  0  0  0  0
   21.3830   69.3170   11.2560 C   0  0  0  0  0  3  0  0  0  0  0  0
   18.6380   68.5610   12.0190 O   0  0  0  0  0  0  0  0  0  0  0  0
   17.1330   68.5210   10.1440 H   0  0  0  0  0  0  0  0  0  0  0  0
   15.8280   68.3360    3.3280 C   0  0  0  0  0  2  0  0  0  0  0  0
   14.9080   67.2320    3.7710 C   0  0  0  0  0  3  0  0  0  0  0  0
   15.2970   66.1890    4.5250 C   0  0  0  0  0  3  0  0  0  0  0  0
   14.4030   65.1170    4.9060 C   0  0  0  0  0  3  0  0  0  0  0  0
   13.1190   65.0600    4.5230 C   0  0  0  0  0  3  0  0  0  0  0  0
   12.1880   63.9530    4.9020 C   0  0  0  0  0  1  0  0  0  0  0  0
  1 20  1  0  0  0  0
  1  2  1  0  0  0  0
  2  3  1  0  0  0  0
  3  4  2  0  0  0  0
  4  5  1  0  0  0  0
  5 10  2  0  0  0  0
  6  7  2  0  0  0  0
  7  8  1  0  0  0  0
  7  9  1  0  0  0  0
  8 10  1  0  0  0  0
  9 11  1  1  0  0  0
  9 12  1  0  0  0  0
 10 13  1  0  0  0  0
 11 14  1  0  0  0  0
 13 19  1  0  0  0  0
 13 16  1  0  0  0  0
 14 17  2  0  0  0  0
 15 12  1  6  0  0  0
 15 16  1  0  0  0  0
 15 17  1  0  0  0  0
 16 18  2  0  0  0  0
 20 21  1  0  0  0  0
 21 22  2  0  0  0  0
 22 23  1  0  0  0  0
 24 25  1  0  0  0  0
 24 23  2  0  0  0  0
M  END
>  <MODEL>
16

>  <REMARK>
 VINA RESULT:    -7.586      2.833      7.611
 INTER + INTRA:         -11.003
 INTER:                 -10.498
 INTRA:                  -0.505
 UNBOUND:                -0.755
 SMILES C=C1O/C(=C\C=C\OCC/C=C/C=C/C)NC(=O)c2cccc1c2
 SMILES IDX 9 1 8 2 7 3 6 4 5 5 1 6 2 7 3 8 23 9 4 10 22 11 24 12 16 13
 SMILES IDX 21 14 19 15 17 16 20 17 18 18 10 20 11 21 12 22 13 23 14 24
 SMILES IDX 15 25
 H PARENT 16 19

>  <TORSDO>
F 6

$$$$
research/ai4chem/closed_loop/ipf_cycle1/docking_1vjy/cand_0019_dock.pdbqt
 OpenBabel03012623503D

 25 26  0  0  1  0  0  0  0  0999 V2000
   18.0700   68.7580    9.8860 C   0  0  0  0  0  2  0  0  0  0  0  0
   17.6300   67.8530    8.8600 O   0  0  0  0  0  0  0  0  0  0  0  0
   17.2200   68.4400    7.6960 C   0  0  0  0  0  3  0  0  0  0  0  0
   16.4580   67.7580    6.8230 C   0  0  0  0  0  3  0  0  0  0  0  0
   16.0920   68.1920    5.4920 C   0  0  0  0  0  3  0  0  0  0  0  0
   20.2770   67.5720    5.5120 C   0  0  0  0  0  2  0  0  0  0  0  0
   19.4080   68.2430    4.7470 C   0  0  0  0  0  0  0  0  0  0  0  0
   18.1730   67.6310    4.4270 O   0  0  0  0  0  0  0  0  0  0  0  0
   19.8210   69.4100    3.9150 C   0  0  1  0  0  3  0  0  0  0  0  0
   16.9150   68.2610    4.4220 C   0  0  0  0  0  0  0  0  0  0  0  0
   20.8680   69.2960    2.9850 C   0  0  0  0  0  2  0  0  0  0  0  0
   18.7770   70.2280    3.5890 C   0  0  0  0  0  2  0  0  0  0  0  0
   16.4040   68.7620    3.2240 N   0  0  0  0  0  0  0  0  0  0  0  0
   20.6310   69.6570    1.6550 C   0  0  0  0  0  3  0  0  0  0  0  0
   18.3590   69.9890    2.2970 C   0  0  2  0  0  3  0  0  0  0  0  0
   16.9940   69.4310    2.1490 C   0  0  0  0  0  0  0  0  0  0  0  0
   19.3060   69.8700    1.2840 C   0  0  0  0  0  3  0  0  0  0  0  0
   16.3740   69.6210    1.1080 O   0  0  0  0  0  0  0  0  0  0  0  0
   15.3980   68.7280    3.1150 H   0  0  0  0  0  0  0  0  0  0  0  0
   19.4700   68.3060   10.3240 C   0  0  0  0  0  2  0  0  0  0  0  0
   20.5590   68.6420    9.3410 C   0  0  0  0  0  3  0  0  0  0  0  0
   20.6910   69.8430    8.7510 C   0  0  0  0  0  3  0  0  0  0  0  0
   21.7220   70.1320    7.7780 C   0  0  0  0  0  3  0  0  0  0  0  0
   21.4820   70.7600    6.6170 C   0  0  0  0  0  3  0  0  0  0  0  0
   22.5400   71.0730    5.6090 C   0  0  0  0  0  1  0  0  0  0  0  0
  1 20  1  0  0  0  0
  2  1  1  0  0  0  0
  3  2  1  0  0  0  0
  4  3  2  0  0  0  0
  5  4  1  0  0  0  0
  7  6  2  0  0  0  0
  8  7  1  0  0  0  0
  9 11  1  6  0  0  0
  9  7  1  0  0  0  0
 10  8  1  0  0  0  0
 10  5  2  0  0  0  0
 12  9  1  0  0  0  0
 13 10  1  0  0  0  0
 14 11  1  0  0  0  0
 15 17  1  1  0  0  0
 15 12  1  0  0  0  0
 16 15  1  0  0  0  0
 16 13  1  0  0  0  0
 17 14  2  0  0  0  0
 18 16  2  0  0  0  0
 19 13  1  0  0  0  0
 21 20  1  0  0  0  0
 22 21  2  0  0  0  0
 23 22  1  0  0  0  0
 24 23  2  0  0  0  0
 25 24  1  0  0  0  0
M  END
>  <MODEL>
17

>  <REMARK>
 VINA RESULT:    -7.549      1.318      1.694
 INTER + INTRA:         -10.953
 INTER:                  -9.605
 INTRA:                  -1.347
 UNBOUND:                -0.755
 SMILES C=C1O/C(=C\C=C\OCC/C=C/C=C/C)NC(=O)c2cccc1c2
 SMILES IDX 9 1 8 2 7 3 6 4 5 5 1 6 2 7 3 8 23 9 4 10 22 11 24 12 16 13
 SMILES IDX 21 14 19 15 17 16 20 17 18 18 10 20 11 21 12 22 13 23 14 24
 SMILES IDX 15 25
 H PARENT 16 19

>  <TORSDO>
F 6

$$$$
research/ai4chem/closed_loop/ipf_cycle1/docking_1vjy/cand_0019_dock.pdbqt
 OpenBabel03012623503D

 25 26  0  0  1  0  0  0  0  0999 V2000
   15.5180   68.0060    4.7350 C   0  0  0  0  0  2  0  0  0  0  0  0
   16.7310   67.5480    5.3550 O   0  0  0  0  0  0  0  0  0  0  0  0
   17.5750   68.5310    5.7920 C   0  0  0  0  0  3  0  0  0  0  0  0
   18.8880   68.4750    5.5070 C   0  0  0  0  0  3  0  0  0  0  0  0
   19.9120   69.3480    6.0380 C   0  0  0  0  0  3  0  0  0  0  0  0
   18.9640   66.5360    9.0530 C   0  0  0  0  0  2  0  0  0  0  0  0
   19.5500   67.7390    9.0100 C   0  0  0  0  0  0  0  0  0  0  0  0
   20.4590   68.0120    7.9600 O   0  0  0  0  0  0  0  0  0  0  0  0
   19.5910   68.6430   10.1950 C   0  0  1  0  0  3  0  0  0  0  0  0
   20.5390   69.2110    7.2280 C   0  0  0  0  0  0  0  0  0  0  0  0
   20.1200   68.2010   11.4190 C   0  0  0  0  0  2  0  0  0  0  0  0
   19.7930   69.9520    9.8590 C   0  0  0  0  0  2  0  0  0  0  0  0
   21.4630   70.1850    7.6070 N   0  0  0  0  0  0  0  0  0  0  0  0
   21.1390   68.9450   12.0220 C   0  0  0  0  0  3  0  0  0  0  0  0
   21.1080   70.3080   10.0660 C   0  0  2  0  0  3  0  0  0  0  0  0
   21.8860   70.6550    8.8530 C   0  0  0  0  0  0  0  0  0  0  0  0
   21.7380   69.9380   11.2510 C   0  0  0  0  0  3  0  0  0  0  0  0
   22.8530   71.4030    8.9490 O   0  0  0  0  0  0  0  0  0  0  0  0
   21.8620   70.7410    6.8610 H   0  0  0  0  0  0  0  0  0  0  0  0
   15.7420   67.9810    3.2170 C   0  0  0  0  0  2  0  0  0  0  0  0
   16.7880   68.9490    2.7360 C   0  0  0  0  0  3  0  0  0  0  0  0
   17.8960   68.5840    2.0680 C   0  0  0  0  0  3  0  0  0  0  0  0
   18.9090   69.5290    1.6490 C   0  0  0  0  0  3  0  0  0  0  0  0
   20.2060   69.4060    1.9670 C   0  0  0  0  0  3  0  0  0  0  0  0
   21.2630   70.3690    1.5320 C   0  0  0  0  0  1  0  0  0  0  0  0
  1  2  1  0  0  0  0
  2  3  1  0  0  0  0
  4  3  2  0  0  0  0
  4  5  1  0  0  0  0
  5 10  2  0  0  0  0
  7  6  2  0  0  0  0
  7  9  1  0  0  0  0
  8  7  1  0  0  0  0
  9 12  1  6  0  0  0
  9 11  1  0  0  0  0
 10 13  1  0  0  0  0
 10  8  1  0  0  0  0
 11 14  1  0  0  0  0
 13 16  1  0  0  0  0
 15 12  1  6  0  0  0
 15 17  1  0  0  0  0
 16 18  2  0  0  0  0
 16 15  1  0  0  0  0
 17 14  2  0  0  0  0
 19 13  1  0  0  0  0
 20  1  1  0  0  0  0
 21 20  1  0  0  0  0
 22 21  2  0  0  0  0
 23 24  2  0  0  0  0
 23 22  1  0  0  0  0
 25 24  1  0  0  0  0
M  END
>  <MODEL>
18

>  <REMARK>
 VINA RESULT:    -6.584      2.308      7.110
 INTER + INTRA:          -9.648
 INTER:                  -9.018
 INTRA:                  -0.631
 UNBOUND:                -0.755
 SMILES C=C1O/C(=C\C=C\OCC/C=C/C=C/C)NC(=O)c2cccc1c2
 SMILES IDX 9 1 8 2 7 3 6 4 5 5 1 6 2 7 3 8 23 9 4 10 22 11 24 12 16 13
 SMILES IDX 21 14 19 15 17 16 20 17 18 18 10 20 11 21 12 22 13 23 14 24
 SMILES IDX 15 25
 H PARENT 16 19

>  <TORSDO>
F 6

$$$$
