research/ai4chem/closed_loop/ipf_cycle1/docking_1vjy/cand_0007_dock.pdbqt
 OpenBabel03012623503D

 19 20  0  0  0  0  0  0  0  0999 V2000
   16.3060   67.6920    4.6400 C   0  0  0  0  0  0  0  0  0  0  0  0
   17.2020   68.0240    5.5980 C   0  0  0  0  0  0  0  0  0  0  0  0
   18.0620   68.6990    4.5730 C   0  0  0  0  0  0  0  0  0  0  0  0
   19.2180   69.3740    4.3440 C   0  0  0  0  0  3  0  0  0  0  0  0
   19.4100   69.7510    3.0080 C   0  0  0  0  0  3  0  0  0  0  0  0
   18.4500   69.4270    2.0120 C   0  0  0  0  0  0  0  0  0  0  0  0
   18.6820   69.8100    0.7480 F   0  0  0  0  0  0  0  0  0  0  0  0
   17.2780   68.7240    2.3020 C   0  0  0  0  0  3  0  0  0  0  0  0
   17.1450   68.3870    3.6090 C   0  0  0  0  0  0  0  0  0  0  0  0
   14.9800   66.9320    4.5360 C   0  0  0  0  0  3  0  0  0  0  0  0
   14.7480   65.7260    5.0710 C   0  0  0  0  0  3  0  0  0  0  0  0
   13.4790   65.0400    4.9510 C   0  0  0  0  0  3  0  0  0  0  0  0
   12.4370   65.2690    5.7630 C   0  0  0  0  0  0  0  0  0  0  0  0
   12.5560   66.1840    6.7540 F   0  0  0  0  0  0  0  0  0  0  0  0
   11.1680   64.5900    5.6470 C   0  0  0  0  0  3  0  0  0  0  0  0
   10.4030   64.6300    4.5490 C   0  0  0  0  0  2  0  0  0  0  0  0
   17.3980   67.8090    7.0180 N   0  0  0  0  0  0  0  0  0  0  0  0
   17.6830   68.8690    7.6970 C   0  0  0  0  0  3  0  0  0  0  0  0
   17.9230   68.7830    9.1730 C   0  0  0  0  0  1  0  0  0  0  0  0
  1  2  2  0  0  0  0
  2 17  1  0  0  0  0
  3  2  1  0  0  0  0
  4  3  1  0  0  0  0
  5  4  2  0  0  0  0
  6  8  2  0  0  0  0
  6  5  1  0  0  0  0
  7  6  1  0  0  0  0
  8  9  1  0  0  0  0
  9  3  2  0  0  0  0
  9  1  1  0  0  0  0
 10  1  1  0  0  0  0
 10 11  2  0  0  0  0
 12 11  1  0  0  0  0
 12 13  2  0  0  0  0
 13 14  1  0  0  0  0
 15 13  1  0  0  0  0
 16 15  2  0  0  0  0
 17 18  2  0  0  0  0
 18 19  1  0  0  0  0
M  END
>  <MODEL>
1

>  <REMARK>
 VINA RESULT:    -8.931      0.000      0.000
 INTER + INTRA:         -11.585
 INTER:                 -11.019
 INTRA:                  -0.566
 UNBOUND:                -0.566
 SMILES C=C/C(F)=C/C=C/C1=C(/N=C/C)c2ccc(F)cc21
 SMILES IDX 8 1 9 2 13 3 14 4 15 5 16 6 17 7 18 8 19 9 7 10 6 11 5 12
 SMILES IDX 3 13 4 14 2 15 1 16 10 17 11 18 12 19
 H PARENT

>  <TORSDO>
F 4

$$$$
research/ai4chem/closed_loop/ipf_cycle1/docking_1vjy/cand_0007_dock.pdbqt
 OpenBabel03012623503D

 19 20  0  0  0  0  0  0  0  0999 V2000
   16.4800   67.8690    4.9210 C   0  0  0  0  0  0  0  0  0  0  0  0
   17.4950   68.1110    5.7830 C   0  0  0  0  0  0  0  0  0  0  0  0
   18.3230   68.6700    4.6670 C   0  0  0  0  0  0  0  0  0  0  0  0
   19.5200   69.2060    4.3140 C   0  0  0  0  0  3  0  0  0  0  0  0
   19.6250   69.5400    2.9580 C   0  0  0  0  0  3  0  0  0  0  0  0
   18.5440   69.3130    2.0630 C   0  0  0  0  0  0  0  0  0  0  0  0
   18.6970   69.6490    0.7750 F   0  0  0  0  0  0  0  0  0  0  0  0
   17.3340   68.7510    2.4780 C   0  0  0  0  0  3  0  0  0  0  0  0
   17.2890   68.4500    3.8000 C   0  0  0  0  0  0  0  0  0  0  0  0
   15.0740   67.2620    4.9600 C   0  0  0  0  0  3  0  0  0  0  0  0
   14.8100   65.9500    4.9860 C   0  0  0  0  0  3  0  0  0  0  0  0
   13.4660   65.4150    5.0230 C   0  0  0  0  0  3  0  0  0  0  0  0
   13.0100   64.5030    4.1530 C   0  0  0  0  0  0  0  0  0  0  0  0
   13.8320   64.0440    3.1800 F   0  0  0  0  0  0  0  0  0  0  0  0
   11.6710   63.9640    4.1860 C   0  0  0  0  0  3  0  0  0  0  0  0
   10.5940   64.6730    4.5510 C   0  0  0  0  0  2  0  0  0  0  0  0
   17.8000   67.8950    7.1840 N   0  0  0  0  0  0  0  0  0  0  0  0
   19.0190   67.5520    7.4310 C   0  0  0  0  0  3  0  0  0  0  0  0
   19.4620   67.2860    8.8370 C   0  0  0  0  0  1  0  0  0  0  0  0
  1 10  1  0  0  0  0
  1  2  2  0  0  0  0
  2 17  1  0  0  0  0
  3  2  1  0  0  0  0
  4  3  1  0  0  0  0
  5  4  2  0  0  0  0
  6  8  2  0  0  0  0
  6  5  1  0  0  0  0
  7  6  1  0  0  0  0
  8  9  1  0  0  0  0
  9  3  2  0  0  0  0
  9  1  1  0  0  0  0
 10 11  2  0  0  0  0
 11 12  1  0  0  0  0
 13 15  1  0  0  0  0
 13 12  2  0  0  0  0
 14 13  1  0  0  0  0
 15 16  2  0  0  0  0
 17 18  2  0  0  0  0
 18 19  1  0  0  0  0
M  END
>  <MODEL>
2

>  <REMARK>
 VINA RESULT:    -8.831      1.299      1.358
 INTER + INTRA:         -11.463
 INTER:                 -10.961
 INTRA:                  -0.502
 UNBOUND:                -0.566
 SMILES C=C/C(F)=C/C=C/C1=C(/N=C/C)c2ccc(F)cc21
 SMILES IDX 8 1 9 2 13 3 14 4 15 5 16 6 17 7 18 8 19 9 7 10 6 11 5 12
 SMILES IDX 3 13 4 14 2 15 1 16 10 17 11 18 12 19
 H PARENT

>  <TORSDO>
F 4

$$$$
research/ai4chem/closed_loop/ipf_cycle1/docking_1vjy/cand_0007_dock.pdbqt
 OpenBabel03012623503D

 19 20  0  0  0  0  0  0  0  0999 V2000
   16.1240   67.5510    5.0620 C   0  0  0  0  0  0  0  0  0  0  0  0
   17.1780   68.0520    4.3760 C   0  0  0  0  0  0  0  0  0  0  0  0
   17.7610   68.5900    5.6470 C   0  0  0  0  0  0  0  0  0  0  0  0
   18.7810   69.2910    6.2070 C   0  0  0  0  0  3  0  0  0  0  0  0
   18.6860   69.4340    7.5980 C   0  0  0  0  0  3  0  0  0  0  0  0
   17.5940   68.8790    8.3170 C   0  0  0  0  0  0  0  0  0  0  0  0
   17.5490   69.0450    9.6460 F   0  0  0  0  0  0  0  0  0  0  0  0
   16.5650   68.1720    7.6890 C   0  0  0  0  0  3  0  0  0  0  0  0
   16.7110   68.0630    6.3440 C   0  0  0  0  0  0  0  0  0  0  0  0
   14.8320   66.7850    4.7640 C   0  0  0  0  0  3  0  0  0  0  0  0
   14.5190   65.5880    5.2770 C   0  0  0  0  0  3  0  0  0  0  0  0
   13.2850   64.8970    4.9710 C   0  0  0  0  0  3  0  0  0  0  0  0
   12.1580   65.0470    5.6830 C   0  0  0  0  0  0  0  0  0  0  0  0
   12.1520   65.8820    6.7480 F   0  0  0  0  0  0  0  0  0  0  0  0
   10.9240   64.3620    5.3810 C   0  0  0  0  0  3  0  0  0  0  0  0
   10.4470   64.2030    4.1390 C   0  0  0  0  0  2  0  0  0  0  0  0
   17.6230   68.1560    3.0010 N   0  0  0  0  0  0  0  0  0  0  0  0
   17.8980   69.3520    2.6050 C   0  0  0  0  0  3  0  0  0  0  0  0
   18.3560   69.6000    1.2010 C   0  0  0  0  0  1  0  0  0  0  0  0
  1  9  1  0  0  0  0
  2  1  2  0  0  0  0
  2  3  1  0  0  0  0
  3  4  2  0  0  0  0
  3  9  1  0  0  0  0
  4  5  1  0  0  0  0
  5  6  2  0  0  0  0
  6  7  1  0  0  0  0
  8  6  1  0  0  0  0
  9  8  2  0  0  0  0
 10  1  1  0  0  0  0
 10 11  2  0  0  0  0
 12 11  1  0  0  0  0
 12 13  2  0  0  0  0
 13 14  1  0  0  0  0
 15 13  1  0  0  0  0
 16 15  2  0  0  0  0
 17  2  1  0  0  0  0
 18 17  2  0  0  0  0
 19 18  1  0  0  0  0
M  END
>  <MODEL>
3

>  <REMARK>
 VINA RESULT:    -8.655      2.411      3.946
 INTER + INTRA:         -11.245
 INTER:                 -10.634
 INTRA:                  -0.610
 UNBOUND:                -0.566
 SMILES C=C/C(F)=C/C=C/C1=C(/N=C/C)c2ccc(F)cc21
 SMILES IDX 8 1 9 2 13 3 14 4 15 5 16 6 17 7 18 8 19 9 7 10 6 11 5 12
 SMILES IDX 3 13 4 14 2 15 1 16 10 17 11 18 12 19
 H PARENT

>  <TORSDO>
F 4

$$$$
research/ai4chem/closed_loop/ipf_cycle1/docking_1vjy/cand_0007_dock.pdbqt
 OpenBabel03012623503D

 19 20  0  0  0  0  0  0  0  0999 V2000
   16.3000   67.6530    5.2500 C   0  0  0  0  0  0  0  0  0  0  0  0
   17.3370   68.0640    4.4850 C   0  0  0  0  0  0  0  0  0  0  0  0
   18.0890   68.4820    5.7120 C   0  0  0  0  0  0  0  0  0  0  0  0
   19.2270   69.0420    6.1970 C   0  0  0  0  0  3  0  0  0  0  0  0
   19.2730   69.1370    7.5940 C   0  0  0  0  0  3  0  0  0  0  0  0
   18.1940   68.6750    8.3940 C   0  0  0  0  0  0  0  0  0  0  0  0
   18.2870   68.7890    9.7270 F   0  0  0  0  0  0  0  0  0  0  0  0
   17.0400   68.1110    7.8430 C   0  0  0  0  0  3  0  0  0  0  0  0
   17.0520   68.0440    6.4880 C   0  0  0  0  0  0  0  0  0  0  0  0
   14.9070   67.0470    5.0490 C   0  0  0  0  0  3  0  0  0  0  0  0
   14.5970   65.7620    5.2670 C   0  0  0  0  0  3  0  0  0  0  0  0
   13.2670   65.2270    5.0660 C   0  0  0  0  0  3  0  0  0  0  0  0
   12.9650   64.3400    4.1070 C   0  0  0  0  0  0  0  0  0  0  0  0
   13.9390   63.9090    3.2710 F   0  0  0  0  0  0  0  0  0  0  0  0
   11.6410   63.8010    3.9030 C   0  0  0  0  0  3  0  0  0  0  0  0
   10.5370   64.3130    4.4620 C   0  0  0  0  0  2  0  0  0  0  0  0
   17.6670   68.1760    3.0780 N   0  0  0  0  0  0  0  0  0  0  0  0
   17.9430   69.3710    2.6750 C   0  0  0  0  0  3  0  0  0  0  0  0
   18.2870   69.6270    1.2410 C   0  0  0  0  0  1  0  0  0  0  0  0
  1  9  1  0  0  0  0
  2  1  2  0  0  0  0
  2  3  1  0  0  0  0
  3  4  2  0  0  0  0
  3  9  1  0  0  0  0
  4  5  1  0  0  0  0
  5  6  2  0  0  0  0
  6  7  1  0  0  0  0
  8  6  1  0  0  0  0
  9  8  2  0  0  0  0
 10  1  1  0  0  0  0
 10 11  2  0  0  0  0
 12 11  1  0  0  0  0
 13 12  2  0  0  0  0
 14 13  1  0  0  0  0
 15 13  1  0  0  0  0
 15 16  2  0  0  0  0
 17  2  1  0  0  0  0
 18 17  2  0  0  0  0
 19 18  1  0  0  0  0
M  END
>  <MODEL>
4

>  <REMARK>
 VINA RESULT:    -8.392      2.454      4.125
 INTER + INTRA:         -10.921
 INTER:                 -10.352
 INTRA:                  -0.569
 UNBOUND:                -0.566
 SMILES C=C/C(F)=C/C=C/C1=C(/N=C/C)c2ccc(F)cc21
 SMILES IDX 8 1 9 2 13 3 14 4 15 5 16 6 17 7 18 8 19 9 7 10 6 11 5 12
 SMILES IDX 3 13 4 14 2 15 1 16 10 17 11 18 12 19
 H PARENT

>  <TORSDO>
F 4

$$$$
research/ai4chem/closed_loop/ipf_cycle1/docking_1vjy/cand_0007_dock.pdbqt
 OpenBabel03012623503D

 19 20  0  0  0  0  0  0  0  0999 V2000
   15.2990   66.8410    5.2280 C   0  0  0  0  0  0  0  0  0  0  0  0
   14.6640   67.2060    6.3660 C   0  0  0  0  0  0  0  0  0  0  0  0
   13.5470   66.2550    6.0590 C   0  0  0  0  0  0  0  0  0  0  0  0
   12.3470   65.7640    6.4600 C   0  0  0  0  0  3  0  0  0  0  0  0
   11.8070   64.7930    5.6070 C   0  0  0  0  0  3  0  0  0  0  0  0
   12.4930   64.3900    4.4300 C   0  0  0  0  0  0  0  0  0  0  0  0
   11.9330   63.4580    3.6470 F   0  0  0  0  0  0  0  0  0  0  0  0
   13.7260   64.9340    4.0590 C   0  0  0  0  0  3  0  0  0  0  0  0
   14.2000   65.8670    4.9220 C   0  0  0  0  0  0  0  0  0  0  0  0
   16.5830   67.2040    4.4740 C   0  0  0  0  0  3  0  0  0  0  0  0
   16.6760   68.1630    3.5440 C   0  0  0  0  0  3  0  0  0  0  0  0
   17.9090   68.4760    2.8540 C   0  0  0  0  0  3  0  0  0  0  0  0
   18.0880   69.5930    2.1330 C   0  0  0  0  0  0  0  0  0  0  0  0
   17.0760   70.4870    2.0300 F   0  0  0  0  0  0  0  0  0  0  0  0
   19.3160   69.9120    1.4450 C   0  0  0  0  0  3  0  0  0  0  0  0
   20.5310   69.7770    1.9930 C   0  0  0  0  0  2  0  0  0  0  0  0
   14.8450   68.1500    7.4510 N   0  0  0  0  0  0  0  0  0  0  0  0
   15.7580   69.0400    7.2550 C   0  0  0  0  0  3  0  0  0  0  0  0
   16.0530   70.0670    8.3030 C   0  0  0  0  0  1  0  0  0  0  0  0
  1  2  2  0  0  0  0
  2 17  1  0  0  0  0
  3  2  1  0  0  0  0
  3  4  1  0  0  0  0
  5  4  2  0  0  0  0
  6  5  1  0  0  0  0
  7  6  1  0  0  0  0
  8  6  2  0  0  0  0
  8  9  1  0  0  0  0
  9  1  1  0  0  0  0
  9  3  2  0  0  0  0
 10  1  1  0  0  0  0
 11 10  2  0  0  0  0
 12 11  1  0  0  0  0
 13 12  2  0  0  0  0
 14 13  1  0  0  0  0
 15 16  2  0  0  0  0
 15 13  1  0  0  0  0
 18 17  2  0  0  0  0
 18 19  1  0  0  0  0
M  END
>  <MODEL>
5

>  <REMARK>
 VINA RESULT:    -8.284      1.759      6.650
 INTER + INTRA:         -10.787
 INTER:                 -10.334
 INTRA:                  -0.453
 UNBOUND:                -0.566
 SMILES C=C/C(F)=C/C=C/C1=C(/N=C/C)c2ccc(F)cc21
 SMILES IDX 8 1 9 2 13 3 14 4 15 5 16 6 17 7 18 8 19 9 7 10 6 11 5 12
 SMILES IDX 3 13 4 14 2 15 1 16 10 17 11 18 12 19
 H PARENT

>  <TORSDO>
F 4

$$$$
research/ai4chem/closed_loop/ipf_cycle1/docking_1vjy/cand_0007_dock.pdbqt
 OpenBabel03012623503D

 19 20  0  0  0  0  0  0  0  0999 V2000
   16.2290   67.6100    4.4140 C   0  0  0  0  0  0  0  0  0  0  0  0
   15.5990   68.0430    5.5300 C   0  0  0  0  0  0  0  0  0  0  0  0
   14.6400   66.8940    5.4460 C   0  0  0  0  0  0  0  0  0  0  0  0
   13.5580   66.2900    6.0000 C   0  0  0  0  0  3  0  0  0  0  0  0
   13.1440   65.1270    5.3390 C   0  0  0  0  0  3  0  0  0  0  0  0
   13.8300   64.6590    4.1850 C   0  0  0  0  0  0  0  0  0  0  0  0
   13.3940   63.5410    3.5890 F   0  0  0  0  0  0  0  0  0  0  0  0
   14.9370   65.3240    3.6510 C   0  0  0  0  0  3  0  0  0  0  0  0
   15.2920   66.4420    4.3330 C   0  0  0  0  0  0  0  0  0  0  0  0
   17.3980   68.0470    3.5240 C   0  0  0  0  0  3  0  0  0  0  0  0
   18.1640   69.1220    3.7460 C   0  0  0  0  0  3  0  0  0  0  0  0
   19.2610   69.5010    2.8810 C   0  0  0  0  0  3  0  0  0  0  0  0
   20.5480   69.2610    3.1720 C   0  0  0  0  0  0  0  0  0  0  0  0
   20.8610   68.6340    4.3310 F   0  0  0  0  0  0  0  0  0  0  0  0
   21.6460   69.6340    2.3120 C   0  0  0  0  0  3  0  0  0  0  0  0
   21.4920   70.2830    1.1510 C   0  0  0  0  0  2  0  0  0  0  0  0
   15.6730   69.1600    6.4510 N   0  0  0  0  0  0  0  0  0  0  0  0
   16.0710   68.8620    7.6410 C   0  0  0  0  0  3  0  0  0  0  0  0
   16.1800   69.9220    8.6930 C   0  0  0  0  0  1  0  0  0  0  0  0
  1  2  2  0  0  0  0
  2 17  1  0  0  0  0
  3  2  1  0  0  0  0
  3  4  1  0  0  0  0
  5  4  2  0  0  0  0
  6  5  1  0  0  0  0
  7  6  1  0  0  0  0
  8  6  2  0  0  0  0
  8  9  1  0  0  0  0
  9  1  1  0  0  0  0
  9  3  2  0  0  0  0
 10 11  2  0  0  0  0
 10  1  1  0  0  0  0
 12 13  2  0  0  0  0
 12 11  1  0  0  0  0
 13 14  1  0  0  0  0
 15 13  1  0  0  0  0
 16 15  2  0  0  0  0
 17 18  2  0  0  0  0
 18 19  1  0  0  0  0
M  END
>  <MODEL>
6

>  <REMARK>
 VINA RESULT:    -8.081      1.967      6.745
 INTER + INTRA:         -10.537
 INTER:                  -9.974
 INTRA:                  -0.562
 UNBOUND:                -0.566
 SMILES C=C/C(F)=C/C=C/C1=C(/N=C/C)c2ccc(F)cc21
 SMILES IDX 8 1 9 2 13 3 14 4 15 5 16 6 17 7 18 8 19 9 7 10 6 11 5 12
 SMILES IDX 3 13 4 14 2 15 1 16 10 17 11 18 12 19
 H PARENT

>  <TORSDO>
F 4

$$$$
research/ai4chem/closed_loop/ipf_cycle1/docking_1vjy/cand_0007_dock.pdbqt
 OpenBabel03012623503D

 19 20  0  0  0  0  0  0  0  0999 V2000
   17.4770   68.1310    4.9140 C   0  0  0  0  0  0  0  0  0  0  0  0
   18.5410   68.1950    5.7470 C   0  0  0  0  0  0  0  0  0  0  0  0
   19.3820   68.7620    4.6440 C   0  0  0  0  0  0  0  0  0  0  0  0
   20.6140   69.2050    4.2840 C   0  0  0  0  0  3  0  0  0  0  0  0
   20.7050   69.6420    2.9560 C   0  0  0  0  0  3  0  0  0  0  0  0
   19.5750   69.6020    2.0950 C   0  0  0  0  0  0  0  0  0  0  0  0
   19.7150   70.0310    0.8320 F   0  0  0  0  0  0  0  0  0  0  0  0
   18.3290   69.1300    2.5150 C   0  0  0  0  0  3  0  0  0  0  0  0
   18.3010   68.7220    3.8090 C   0  0  0  0  0  0  0  0  0  0  0  0
   16.0170   67.6670    4.9650 C   0  0  0  0  0  3  0  0  0  0  0  0
   15.4660   66.9960    5.9840 C   0  0  0  0  0  3  0  0  0  0  0  0
   14.0810   66.5760    5.9940 C   0  0  0  0  0  3  0  0  0  0  0  0
   13.6230   65.5250    5.2990 C   0  0  0  0  0  0  0  0  0  0  0  0
   14.4840   64.8050    4.5400 F   0  0  0  0  0  0  0  0  0  0  0  0
   12.2440   65.0990    5.3070 C   0  0  0  0  0  3  0  0  0  0  0  0
   11.8040   63.9940    4.6910 C   0  0  0  0  0  2  0  0  0  0  0  0
   18.8720   67.8300    7.1100 N   0  0  0  0  0  0  0  0  0  0  0  0
   19.2670   68.8050    7.8560 C   0  0  0  0  0  3  0  0  0  0  0  0
   19.6520   68.5610    9.2820 C   0  0  0  0  0  1  0  0  0  0  0  0
  1 10  1  0  0  0  0
  1  2  2  0  0  0  0
  2 17  1  0  0  0  0
  3  2  1  0  0  0  0
  4  3  1  0  0  0  0
  5  4  2  0  0  0  0
  6  8  2  0  0  0  0
  6  5  1  0  0  0  0
  7  6  1  0  0  0  0
  8  9  1  0  0  0  0
  9  3  2  0  0  0  0
  9  1  1  0  0  0  0
 10 11  2  0  0  0  0
 11 12  1  0  0  0  0
 13 15  1  0  0  0  0
 13 12  2  0  0  0  0
 14 13  1  0  0  0  0
 16 15  2  0  0  0  0
 17 18  2  0  0  0  0
 18 19  1  0  0  0  0
M  END
>  <MODEL>
7

>  <REMARK>
 VINA RESULT:    -8.010      1.352      1.566
 INTER + INTRA:         -10.450
 INTER:                  -9.913
 INTRA:                  -0.537
 UNBOUND:                -0.566
 SMILES C=C/C(F)=C/C=C/C1=C(/N=C/C)c2ccc(F)cc21
 SMILES IDX 8 1 9 2 13 3 14 4 15 5 16 6 17 7 18 8 19 9 7 10 6 11 5 12
 SMILES IDX 3 13 4 14 2 15 1 16 10 17 11 18 12 19
 H PARENT

>  <TORSDO>
F 4

$$$$
research/ai4chem/closed_loop/ipf_cycle1/docking_1vjy/cand_0007_dock.pdbqt
 OpenBabel03012623503D

 19 20  0  0  0  0  0  0  0  0999 V2000
   16.5300   67.8640    4.1250 C   0  0  0  0  0  0  0  0  0  0  0  0
   15.4810   67.0170    4.2440 C   0  0  0  0  0  0  0  0  0  0  0  0
   15.2690   67.4650    5.6580 C   0  0  0  0  0  0  0  0  0  0  0  0
   14.5320   67.3090    6.7880 C   0  0  0  0  0  3  0  0  0  0  0  0
   14.9190   68.1390    7.8480 C   0  0  0  0  0  3  0  0  0  0  0  0
   16.0010   69.0480    7.7070 C   0  0  0  0  0  0  0  0  0  0  0  0
   16.3320   69.8190    8.7530 F   0  0  0  0  0  0  0  0  0  0  0  0
   16.7330   69.1640    6.5220 C   0  0  0  0  0  3  0  0  0  0  0  0
   16.3130   68.3380    5.5310 C   0  0  0  0  0  0  0  0  0  0  0  0
   17.5690   68.2480    3.0660 C   0  0  0  0  0  3  0  0  0  0  0  0
   18.1010   69.4690    2.9280 C   0  0  0  0  0  3  0  0  0  0  0  0
   19.0820   69.7920    1.9140 C   0  0  0  0  0  3  0  0  0  0  0  0
   20.4040   69.7990    2.1410 C   0  0  0  0  0  0  0  0  0  0  0  0
   20.8670   69.4930    3.3760 F   0  0  0  0  0  0  0  0  0  0  0  0
   21.3870   70.1180    1.1330 C   0  0  0  0  0  3  0  0  0  0  0  0
   22.6640   69.7190    1.1880 C   0  0  0  0  0  2  0  0  0  0  0  0
   14.8080   66.0100    3.4490 N   0  0  0  0  0  0  0  0  0  0  0  0
   14.2980   65.0330    4.1220 C   0  0  0  0  0  3  0  0  0  0  0  0
   13.5870   63.9190    3.4200 C   0  0  0  0  0  1  0  0  0  0  0  0
  1  2  2  0  0  0  0
  1  9  1  0  0  0  0
  2  3  1  0  0  0  0
  3  4  1  0  0  0  0
  4  5  2  0  0  0  0
  6  5  1  0  0  0  0
  6  7  1  0  0  0  0
  8  6  2  0  0  0  0
  9  3  2  0  0  0  0
  9  8  1  0  0  0  0
 10  1  1  0  0  0  0
 11 10  2  0  0  0  0
 12 13  2  0  0  0  0
 12 11  1  0  0  0  0
 13 14  1  0  0  0  0
 15 16  2  0  0  0  0
 15 13  1  0  0  0  0
 17 18  2  0  0  0  0
 17  2  1  0  0  0  0
 19 18  1  0  0  0  0
M  END
>  <MODEL>
8

>  <REMARK>
 VINA RESULT:    -7.954      2.494      7.248
 INTER + INTRA:         -10.381
 INTER:                  -9.858
 INTRA:                  -0.523
 UNBOUND:                -0.566
 SMILES C=C/C(F)=C/C=C/C1=C(/N=C/C)c2ccc(F)cc21
 SMILES IDX 8 1 9 2 13 3 14 4 15 5 16 6 17 7 18 8 19 9 7 10 6 11 5 12
 SMILES IDX 3 13 4 14 2 15 1 16 10 17 11 18 12 19
 H PARENT

>  <TORSDO>
F 4

$$$$
research/ai4chem/closed_loop/ipf_cycle1/docking_1vjy/cand_0007_dock.pdbqt
 OpenBabel03012623503D

 19 20  0  0  0  0  0  0  0  0999 V2000
   17.9390   68.6930    5.8310 C   0  0  0  0  0  0  0  0  0  0  0  0
   17.5570   68.5720    7.1230 C   0  0  0  0  0  0  0  0  0  0  0  0
   16.3600   67.7740    6.7050 C   0  0  0  0  0  0  0  0  0  0  0  0
   15.2400   67.1260    7.1180 C   0  0  0  0  0  3  0  0  0  0  0  0
   14.5000   66.5370    6.0850 C   0  0  0  0  0  3  0  0  0  0  0  0
   14.9240   66.6390    4.7320 C   0  0  0  0  0  0  0  0  0  0  0  0
   14.1790   66.0590    3.7810 F   0  0  0  0  0  0  0  0  0  0  0  0
   16.0830   67.3250    4.3600 C   0  0  0  0  0  3  0  0  0  0  0  0
   16.7580   67.8730    5.4010 C   0  0  0  0  0  0  0  0  0  0  0  0
   19.0650   69.3600    5.0340 C   0  0  0  0  0  3  0  0  0  0  0  0
   19.7030   68.7980    4.0000 C   0  0  0  0  0  3  0  0  0  0  0  0
   20.7620   69.4630    3.2710 C   0  0  0  0  0  3  0  0  0  0  0  0
   20.6750   69.7850    1.9720 C   0  0  0  0  0  0  0  0  0  0  0  0
   19.5470   69.4810    1.2870 F   0  0  0  0  0  0  0  0  0  0  0  0
   21.7270   70.4500    1.2400 C   0  0  0  0  0  3  0  0  0  0  0  0
   22.9410   69.9220    1.0400 C   0  0  0  0  0  2  0  0  0  0  0  0
   17.9880   69.0350    8.4270 N   0  0  0  0  0  0  0  0  0  0  0  0
   18.3000   68.1030    9.2630 C   0  0  0  0  0  3  0  0  0  0  0  0
   18.7490   68.4460   10.6490 C   0  0  0  0  0  1  0  0  0  0  0  0
  1  2  2  0  0  0  0
  2 17  1  0  0  0  0
  3  4  1  0  0  0  0
  3  2  1  0  0  0  0
  5  4  2  0  0  0  0
  6  5  1  0  0  0  0
  7  6  1  0  0  0  0
  8  6  2  0  0  0  0
  8  9  1  0  0  0  0
  9  1  1  0  0  0  0
  9  3  2  0  0  0  0
 10  1  1  0  0  0  0
 11 10  2  0  0  0  0
 12 11  1  0  0  0  0
 13 12  2  0  0  0  0
 14 13  1  0  0  0  0
 15 13  1  0  0  0  0
 16 15  2  0  0  0  0
 17 18  2  0  0  0  0
 18 19  1  0  0  0  0
M  END
>  <MODEL>
9

>  <REMARK>
 VINA RESULT:    -7.833      2.142      6.765
 INTER + INTRA:         -10.232
 INTER:                  -9.656
 INTRA:                  -0.575
 UNBOUND:                -0.566
 SMILES C=C/C(F)=C/C=C/C1=C(/N=C/C)c2ccc(F)cc21
 SMILES IDX 8 1 9 2 13 3 14 4 15 5 16 6 17 7 18 8 19 9 7 10 6 11 5 12
 SMILES IDX 3 13 4 14 2 15 1 16 10 17 11 18 12 19
 H PARENT

>  <TORSDO>
F 4

$$$$
research/ai4chem/closed_loop/ipf_cycle1/docking_1vjy/cand_0007_dock.pdbqt
 OpenBabel03012623503D

 19 20  0  0  0  0  0  0  0  0999 V2000
   17.6750   68.2560    5.0040 C   0  0  0  0  0  0  0  0  0  0  0  0
   16.6180   68.0220    4.1930 C   0  0  0  0  0  0  0  0  0  0  0  0
   17.3500   68.6460    3.0440 C   0  0  0  0  0  0  0  0  0  0  0  0
   17.2940   68.9980    1.7340 C   0  0  0  0  0  3  0  0  0  0  0  0
   18.4590   69.6070    1.2500 C   0  0  0  0  0  3  0  0  0  0  0  0
   19.5780   69.8220    2.0990 C   0  0  0  0  0  0  0  0  0  0  0  0
   20.6690   70.4100    1.5870 F   0  0  0  0  0  0  0  0  0  0  0  0
   19.5800   69.4460    3.4450 C   0  0  0  0  0  3  0  0  0  0  0  0
   18.4280   68.8600    3.8560 C   0  0  0  0  0  0  0  0  0  0  0  0
   18.0500   68.0470    6.4750 C   0  0  0  0  0  3  0  0  0  0  0  0
   19.2850   67.7790    6.9170 C   0  0  0  0  0  3  0  0  0  0  0  0
   19.5990   67.5890    8.3170 C   0  0  0  0  0  3  0  0  0  0  0  0
   19.7650   68.6030    9.1800 C   0  0  0  0  0  0  0  0  0  0  0  0
   19.6390   69.8770    8.7400 F   0  0  0  0  0  0  0  0  0  0  0  0
   20.0760   68.4190   10.5780 C   0  0  0  0  0  3  0  0  0  0  0  0
   20.6660   69.3520   11.3360 C   0  0  0  0  0  2  0  0  0  0  0  0
   15.2760   67.4820    4.2920 N   0  0  0  0  0  0  0  0  0  0  0  0
   15.2120   66.2020    4.4390 C   0  0  0  0  0  3  0  0  0  0  0  0
   13.8850   65.5160    4.5400 C   0  0  0  0  0  1  0  0  0  0  0  0
  1 10  1  0  0  0  0
  2 17  1  0  0  0  0
  2  1  2  0  0  0  0
  3  9  1  0  0  0  0
  3  2  1  0  0  0  0
  4  3  2  0  0  0  0
  5  4  1  0  0  0  0
  5  6  2  0  0  0  0
  6  8  1  0  0  0  0
  7  6  1  0  0  0  0
  8  9  2  0  0  0  0
  9  1  1  0  0  0  0
 10 11  2  0  0  0  0
 11 12  1  0  0  0  0
 12 13  2  0  0  0  0
 13 15  1  0  0  0  0
 14 13  1  0  0  0  0
 15 16  2  0  0  0  0
 17 18  2  0  0  0  0
 18 19  1  0  0  0  0
M  END
>  <MODEL>
10

>  <REMARK>
 VINA RESULT:    -7.764      2.542      5.877
 INTER + INTRA:         -10.146
 INTER:                  -9.549
 INTRA:                  -0.597
 UNBOUND:                -0.566
 SMILES C=C/C(F)=C/C=C/C1=C(/N=C/C)c2ccc(F)cc21
 SMILES IDX 8 1 9 2 13 3 14 4 15 5 16 6 17 7 18 8 19 9 7 10 6 11 5 12
 SMILES IDX 3 13 4 14 2 15 1 16 10 17 11 18 12 19
 H PARENT

>  <TORSDO>
F 4

$$$$
research/ai4chem/closed_loop/ipf_cycle1/docking_1vjy/cand_0007_dock.pdbqt
 OpenBabel03012623503D

 19 20  0  0  0  0  0  0  0  0999 V2000
   17.4760   68.4300    4.9160 C   0  0  0  0  0  0  0  0  0  0  0  0
   16.5620   68.0400    3.9990 C   0  0  0  0  0  0  0  0  0  0  0  0
   17.4030   68.6160    2.9010 C   0  0  0  0  0  0  0  0  0  0  0  0
   17.5070   68.8440    1.5660 C   0  0  0  0  0  3  0  0  0  0  0  0
   18.6850   69.4990    1.1830 C   0  0  0  0  0  3  0  0  0  0  0  0
   19.6570   69.8790    2.1480 C   0  0  0  0  0  0  0  0  0  0  0  0
   20.7650   70.5050    1.7290 F   0  0  0  0  0  0  0  0  0  0  0  0
   19.4960   69.6270    3.5120 C   0  0  0  0  0  3  0  0  0  0  0  0
   18.3390   68.9890    3.8240 C   0  0  0  0  0  0  0  0  0  0  0  0
   17.6550   68.3850    6.4370 C   0  0  0  0  0  3  0  0  0  0  0  0
   18.6870   68.9210    7.1000 C   0  0  0  0  0  3  0  0  0  0  0  0
   18.8190   68.8570    8.5400 C   0  0  0  0  0  3  0  0  0  0  0  0
   19.3340   67.8020    9.1880 C   0  0  0  0  0  0  0  0  0  0  0  0
   19.7590   66.7300    8.4790 F   0  0  0  0  0  0  0  0  0  0  0  0
   19.4700   67.7340   10.6240 C   0  0  0  0  0  3  0  0  0  0  0  0
   18.7920   68.5180   11.4720 C   0  0  0  0  0  2  0  0  0  0  0  0
   15.2590   67.4040    3.9710 N   0  0  0  0  0  0  0  0  0  0  0  0
   15.2170   66.2220    4.4850 C   0  0  0  0  0  3  0  0  0  0  0  0
   13.9350   65.4490    4.5080 C   0  0  0  0  0  1  0  0  0  0  0  0
  1 10  1  0  0  0  0
  2  1  2  0  0  0  0
  3  9  1  0  0  0  0
  3  2  1  0  0  0  0
  4  3  2  0  0  0  0
  5  4  1  0  0  0  0
  5  6  2  0  0  0  0
  6  8  1  0  0  0  0
  7  6  1  0  0  0  0
  8  9  2  0  0  0  0
  9  1  1  0  0  0  0
 10 11  2  0  0  0  0
 11 12  1  0  0  0  0
 12 13  2  0  0  0  0
 13 15  1  0  0  0  0
 14 13  1  0  0  0  0
 15 16  2  0  0  0  0
 17  2  1  0  0  0  0
 17 18  2  0  0  0  0
 18 19  1  0  0  0  0
M  END
>  <MODEL>
11

>  <REMARK>
 VINA RESULT:    -7.743      2.415      5.536
 INTER + INTRA:         -10.121
 INTER:                  -9.475
 INTRA:                  -0.645
 UNBOUND:                -0.566
 SMILES C=C/C(F)=C/C=C/C1=C(/N=C/C)c2ccc(F)cc21
 SMILES IDX 8 1 9 2 13 3 14 4 15 5 16 6 17 7 18 8 19 9 7 10 6 11 5 12
 SMILES IDX 3 13 4 14 2 15 1 16 10 17 11 18 12 19
 H PARENT

>  <TORSDO>
F 4

$$$$
research/ai4chem/closed_loop/ipf_cycle1/docking_1vjy/cand_0007_dock.pdbqt
 OpenBabel03012623503D

 19 20  0  0  0  0  0  0  0  0999 V2000
   19.6050   68.6610    4.4950 C   0  0  0  0  0  0  0  0  0  0  0  0
   20.2150   69.1960    3.4120 C   0  0  0  0  0  0  0  0  0  0  0  0
   18.9090   69.2240    2.6780 C   0  0  0  0  0  0  0  0  0  0  0  0
   18.2800   69.5280    1.5130 C   0  0  0  0  0  3  0  0  0  0  0  0
   16.9020   69.2780    1.5190 C   0  0  0  0  0  3  0  0  0  0  0  0
   16.2610   68.7450    2.6710 C   0  0  0  0  0  0  0  0  0  0  0  0
   14.9400   68.5230    2.6240 F   0  0  0  0  0  0  0  0  0  0  0  0
   16.9580   68.4430    3.8430 C   0  0  0  0  0  3  0  0  0  0  0  0
   18.2870   68.7070    3.7800 C   0  0  0  0  0  0  0  0  0  0  0  0
   19.9920   68.1720    5.8940 C   0  0  0  0  0  3  0  0  0  0  0  0
   19.1320   67.9940    6.9050 C   0  0  0  0  0  3  0  0  0  0  0  0
   19.5380   67.5280    8.2130 C   0  0  0  0  0  3  0  0  0  0  0  0
   19.9850   68.3430    9.1810 C   0  0  0  0  0  0  0  0  0  0  0  0
   20.0700   69.6730    8.9420 F   0  0  0  0  0  0  0  0  0  0  0  0
   20.3890   67.8850   10.4890 C   0  0  0  0  0  3  0  0  0  0  0  0
   19.7960   68.2700   11.6260 C   0  0  0  0  0  2  0  0  0  0  0  0
   21.5550   69.5580    2.9930 N   0  0  0  0  0  0  0  0  0  0  0  0
   21.7350   69.6020    1.7160 C   0  0  0  0  0  3  0  0  0  0  0  0
   23.0770   69.9490    1.1510 C   0  0  0  0  0  1  0  0  0  0  0  0
  1 10  1  0  0  0  0
  2  1  2  0  0  0  0
  3  2  1  0  0  0  0
  3  9  1  0  0  0  0
  4  5  1  0  0  0  0
  4  3  2  0  0  0  0
  5  6  2  0  0  0  0
  6  8  1  0  0  0  0
  7  6  1  0  0  0  0
  9  8  2  0  0  0  0
  9  1  1  0  0  0  0
 10 11  2  0  0  0  0
 11 12  1  0  0  0  0
 12 13  2  0  0  0  0
 13 15  1  0  0  0  0
 14 13  1  0  0  0  0
 15 16  2  0  0  0  0
 17  2  1  0  0  0  0
 18 17  2  0  0  0  0
 19 18  1  0  0  0  0
M  END
>  <MODEL>
12

>  <REMARK>
 VINA RESULT:    -7.698      3.881      6.456
 INTER + INTRA:         -10.065
 INTER:                  -9.565
 INTRA:                  -0.500
 UNBOUND:                -0.566
 SMILES C=C/C(F)=C/C=C/C1=C(/N=C/C)c2ccc(F)cc21
 SMILES IDX 8 1 9 2 13 3 14 4 15 5 16 6 17 7 18 8 19 9 7 10 6 11 5 12
 SMILES IDX 3 13 4 14 2 15 1 16 10 17 11 18 12 19
 H PARENT

>  <TORSDO>
F 4

$$$$
research/ai4chem/closed_loop/ipf_cycle1/docking_1vjy/cand_0007_dock.pdbqt
 OpenBabel03012623503D

 19 20  0  0  0  0  0  0  0  0999 V2000
   17.8850   68.4800    5.8430 C   0  0  0  0  0  0  0  0  0  0  0  0
   18.7250   68.8110    4.8350 C   0  0  0  0  0  0  0  0  0  0  0  0
   19.6450   69.4810    5.8100 C   0  0  0  0  0  0  0  0  0  0  0  0
   20.7960   70.1840    5.9680 C   0  0  0  0  0  3  0  0  0  0  0  0
   21.0860   70.5240    7.2960 C   0  0  0  0  0  3  0  0  0  0  0  0
   20.2170   70.1460    8.3540 C   0  0  0  0  0  0  0  0  0  0  0  0
   20.5390   70.4970    9.6070 F   0  0  0  0  0  0  0  0  0  0  0  0
   19.0390   69.4270    8.1350 C   0  0  0  0  0  3  0  0  0  0  0  0
   18.8100   69.1250    6.8320 C   0  0  0  0  0  0  0  0  0  0  0  0
   16.5410   67.7650    6.0170 C   0  0  0  0  0  3  0  0  0  0  0  0
   15.8230   67.2370    5.0170 C   0  0  0  0  0  3  0  0  0  0  0  0
   14.5560   66.5680    5.2230 C   0  0  0  0  0  3  0  0  0  0  0  0
   14.2810   65.3460    4.7440 C   0  0  0  0  0  0  0  0  0  0  0  0
   15.2210   64.6860    4.0270 F   0  0  0  0  0  0  0  0  0  0  0  0
   13.0200   64.6730    4.9480 C   0  0  0  0  0  3  0  0  0  0  0  0
   12.4350   63.8970    4.0270 C   0  0  0  0  0  2  0  0  0  0  0  0
   18.7820   68.6940    3.3920 N   0  0  0  0  0  0  0  0  0  0  0  0
   17.7850   69.2170    2.7610 C   0  0  0  0  0  3  0  0  0  0  0  0
   17.7150   69.1530    1.2670 C   0  0  0  0  0  1  0  0  0  0  0  0
  1 10  1  0  0  0  0
  1  9  1  0  0  0  0
  2  3  1  0  0  0  0
  2  1  2  0  0  0  0
  3  4  2  0  0  0  0
  3  9  1  0  0  0  0
  4  5  1  0  0  0  0
  5  6  2  0  0  0  0
  6  7  1  0  0  0  0
  8  6  1  0  0  0  0
  9  8  2  0  0  0  0
 11 12  1  0  0  0  0
 11 10  2  0  0  0  0
 13 15  1  0  0  0  0
 13 12  2  0  0  0  0
 14 13  1  0  0  0  0
 16 15  2  0  0  0  0
 17  2  1  0  0  0  0
 18 17  2  0  0  0  0
 19 18  1  0  0  0  0
M  END
>  <MODEL>
13

>  <REMARK>
 VINA RESULT:    -7.660      2.885      4.373
 INTER + INTRA:         -10.018
 INTER:                  -9.501
 INTRA:                  -0.517
 UNBOUND:                -0.566
 SMILES C=C/C(F)=C/C=C/C1=C(/N=C/C)c2ccc(F)cc21
 SMILES IDX 8 1 9 2 13 3 14 4 15 5 16 6 17 7 18 8 19 9 7 10 6 11 5 12
 SMILES IDX 3 13 4 14 2 15 1 16 10 17 11 18 12 19
 H PARENT

>  <TORSDO>
F 4

$$$$
research/ai4chem/closed_loop/ipf_cycle1/docking_1vjy/cand_0007_dock.pdbqt
 OpenBabel03012623503D

 19 20  0  0  0  0  0  0  0  0999 V2000
   17.5230   68.6900    6.2870 C   0  0  0  0  0  0  0  0  0  0  0  0
   17.7320   68.5560    4.9570 C   0  0  0  0  0  0  0  0  0  0  0  0
   16.4770   67.7460    4.8330 C   0  0  0  0  0  0  0  0  0  0  0  0
   15.6660   67.0500    3.9950 C   0  0  0  0  0  3  0  0  0  0  0  0
   14.5400   66.4910    4.6130 C   0  0  0  0  0  3  0  0  0  0  0  0
   14.3100   66.6620    6.0050 C   0  0  0  0  0  0  0  0  0  0  0  0
   13.2180   66.1060    6.5480 F   0  0  0  0  0  0  0  0  0  0  0  0
   15.1810   67.3840    6.8250 C   0  0  0  0  0  3  0  0  0  0  0  0
   16.2520   67.9030    6.1720 C   0  0  0  0  0  0  0  0  0  0  0  0
   18.2200   69.3360    7.4890 C   0  0  0  0  0  3  0  0  0  0  0  0
   19.2950   68.8310    8.1100 C   0  0  0  0  0  3  0  0  0  0  0  0
   19.9250   69.4730    9.2430 C   0  0  0  0  0  3  0  0  0  0  0  0
   20.9330   70.3500    9.1270 C   0  0  0  0  0  0  0  0  0  0  0  0
   21.4010   70.6660    7.8960 F   0  0  0  0  0  0  0  0  0  0  0  0
   21.5650   70.9960   10.2540 C   0  0  0  0  0  3  0  0  0  0  0  0
   22.6730   71.7410   10.1570 C   0  0  0  0  0  2  0  0  0  0  0  0
   18.7340   68.9210    3.9760 N   0  0  0  0  0  0  0  0  0  0  0  0
   18.2680   69.3170    2.8400 C   0  0  0  0  0  3  0  0  0  0  0  0
   19.1980   69.7110    1.7340 C   0  0  0  0  0  1  0  0  0  0  0  0
  1 10  1  0  0  0  0
  2  1  2  0  0  0  0
  3  2  1  0  0  0  0
  3  9  1  0  0  0  0
  4  5  1  0  0  0  0
  4  3  2  0  0  0  0
  5  6  2  0  0  0  0
  6  7  1  0  0  0  0
  6  8  1  0  0  0  0
  9  1  1  0  0  0  0
  9  8  2  0  0  0  0
 10 11  2  0  0  0  0
 11 12  1  0  0  0  0
 13 12  2  0  0  0  0
 13 15  1  0  0  0  0
 14 13  1  0  0  0  0
 16 15  2  0  0  0  0
 17  2  1  0  0  0  0
 18 17  2  0  0  0  0
 19 18  1  0  0  0  0
M  END
>  <MODEL>
14

>  <REMARK>
 VINA RESULT:    -7.589      2.862      7.494
 INTER + INTRA:          -9.931
 INTER:                  -9.405
 INTRA:                  -0.526
 UNBOUND:                -0.566
 SMILES C=C/C(F)=C/C=C/C1=C(/N=C/C)c2ccc(F)cc21
 SMILES IDX 8 1 9 2 13 3 14 4 15 5 16 6 17 7 18 8 19 9 7 10 6 11 5 12
 SMILES IDX 3 13 4 14 2 15 1 16 10 17 11 18 12 19
 H PARENT

>  <TORSDO>
F 4

$$$$
research/ai4chem/closed_loop/ipf_cycle1/docking_1vjy/cand_0007_dock.pdbqt
 OpenBabel03012623503D

 19 20  0  0  0  0  0  0  0  0999 V2000
   19.0420   69.0950    4.7840 C   0  0  0  0  0  0  0  0  0  0  0  0
   18.7770   69.3630    3.4850 C   0  0  0  0  0  0  0  0  0  0  0  0
   17.4180   68.7480    3.6240 C   0  0  0  0  0  0  0  0  0  0  0  0
   16.2610   68.4230    2.9920 C   0  0  0  0  0  3  0  0  0  0  0  0
   15.3100   67.8030    3.8130 C   0  0  0  0  0  3  0  0  0  0  0  0
   15.5810   67.5520    5.1850 C   0  0  0  0  0  0  0  0  0  0  0  0
   14.6380   66.9540    5.9270 F   0  0  0  0  0  0  0  0  0  0  0  0
   16.7940   67.9010    5.7850 C   0  0  0  0  0  3  0  0  0  0  0  0
   17.6740   68.4990    4.9440 C   0  0  0  0  0  0  0  0  0  0  0  0
   20.2020   69.2690    5.7700 C   0  0  0  0  0  3  0  0  0  0  0  0
   20.7890   70.4380    6.0570 C   0  0  0  0  0  3  0  0  0  0  0  0
   21.8830   70.5610    6.9960 C   0  0  0  0  0  3  0  0  0  0  0  0
   21.7090   70.6720    8.3210 C   0  0  0  0  0  0  0  0  0  0  0  0
   20.4540   70.6730    8.8290 F   0  0  0  0  0  0  0  0  0  0  0  0
   22.7970   70.7930    9.2640 C   0  0  0  0  0  3  0  0  0  0  0  0
   22.8000   71.6570   10.2870 C   0  0  0  0  0  2  0  0  0  0  0  0
   19.4590   69.9250    2.3350 N   0  0  0  0  0  0  0  0  0  0  0  0
   20.7250   69.6850    2.2790 C   0  0  0  0  0  3  0  0  0  0  0  0
   21.5490   70.2190    1.1490 C   0  0  0  0  0  1  0  0  0  0  0  0
  1  9  1  0  0  0  0
  1 10  1  0  0  0  0
  2  3  1  0  0  0  0
  2  1  2  0  0  0  0
  3  9  1  0  0  0  0
  4  3  2  0  0  0  0
  4  5  1  0  0  0  0
  5  6  2  0  0  0  0
  6  8  1  0  0  0  0
  6  7  1  0  0  0  0
  9  8  2  0  0  0  0
 10 11  2  0  0  0  0
 11 12  1  0  0  0  0
 12 13  2  0  0  0  0
 13 14  1  0  0  0  0
 13 15  1  0  0  0  0
 15 16  2  0  0  0  0
 17  2  1  0  0  0  0
 18 17  2  0  0  0  0
 19 18  1  0  0  0  0
M  END
>  <MODEL>
15

>  <REMARK>
 VINA RESULT:    -7.461      3.449      7.680
 INTER + INTRA:          -9.772
 INTER:                  -9.222
 INTRA:                  -0.550
 UNBOUND:                -0.566
 SMILES C=C/C(F)=C/C=C/C1=C(/N=C/C)c2ccc(F)cc21
 SMILES IDX 8 1 9 2 13 3 14 4 15 5 16 6 17 7 18 8 19 9 7 10 6 11 5 12
 SMILES IDX 3 13 4 14 2 15 1 16 10 17 11 18 12 19
 H PARENT

>  <TORSDO>
F 4

$$$$
research/ai4chem/closed_loop/ipf_cycle1/docking_1vjy/cand_0007_dock.pdbqt
 OpenBabel03012623503D

 19 20  0  0  0  0  0  0  0  0999 V2000
   20.2830   68.9900    5.0100 C   0  0  0  0  0  0  0  0  0  0  0  0
   21.2340   69.5670    5.7820 C   0  0  0  0  0  0  0  0  0  0  0  0
   21.9550   70.0390    4.5560 C   0  0  0  0  0  0  0  0  0  0  0  0
   23.0390   70.7010    4.0750 C   0  0  0  0  0  3  0  0  0  0  0  0
   23.0900   70.7830    2.6770 C   0  0  0  0  0  3  0  0  0  0  0  0
   22.0720   70.2030    1.8730 C   0  0  0  0  0  0  0  0  0  0  0  0
   22.1700   70.3080    0.5400 F   0  0  0  0  0  0  0  0  0  0  0  0
   20.9800   69.5250    2.4200 C   0  0  0  0  0  3  0  0  0  0  0  0
   20.9820   69.4790    3.7760 C   0  0  0  0  0  0  0  0  0  0  0  0
   19.0080   68.1630    5.2030 C   0  0  0  0  0  3  0  0  0  0  0  0
   17.7960   68.6770    5.4520 C   0  0  0  0  0  3  0  0  0  0  0  0
   16.6140   67.8610    5.6270 C   0  0  0  0  0  3  0  0  0  0  0  0
   15.9400   67.3110    4.6060 C   0  0  0  0  0  0  0  0  0  0  0  0
   16.3690   67.5180    3.3380 F   0  0  0  0  0  0  0  0  0  0  0  0
   14.7610   66.4940    4.7740 C   0  0  0  0  0  3  0  0  0  0  0  0
   14.6970   65.2030    4.4240 C   0  0  0  0  0  2  0  0  0  0  0  0
   21.5640   69.6790    7.1880 N   0  0  0  0  0  0  0  0  0  0  0  0
   20.6940   70.3050    7.9060 C   0  0  0  0  0  3  0  0  0  0  0  0
   20.9210   70.5030    9.3730 C   0  0  0  0  0  1  0  0  0  0  0  0
  1 10  1  0  0  0  0
  1  2  2  0  0  0  0
  2 17  1  0  0  0  0
  3  2  1  0  0  0  0
  4  3  1  0  0  0  0
  5  4  2  0  0  0  0
  6  8  2  0  0  0  0
  6  5  1  0  0  0  0
  7  6  1  0  0  0  0
  8  9  1  0  0  0  0
  9  3  2  0  0  0  0
  9  1  1  0  0  0  0
 10 11  2  0  0  0  0
 11 12  1  0  0  0  0
 13 15  1  0  0  0  0
 13 12  2  0  0  0  0
 14 13  1  0  0  0  0
 16 15  2  0  0  0  0
 17 18  2  0  0  0  0
 18 19  1  0  0  0  0
M  END
>  <MODEL>
16

>  <REMARK>
 VINA RESULT:    -7.143      2.773      4.113
 INTER + INTRA:          -9.380
 INTER:                  -8.792
 INTRA:                  -0.588
 UNBOUND:                -0.566
 SMILES C=C/C(F)=C/C=C/C1=C(/N=C/C)c2ccc(F)cc21
 SMILES IDX 8 1 9 2 13 3 14 4 15 5 16 6 17 7 18 8 19 9 7 10 6 11 5 12
 SMILES IDX 3 13 4 14 2 15 1 16 10 17 11 18 12 19
 H PARENT

>  <TORSDO>
F 4

$$$$
