research/ai4chem/closed_loop/ipf_cycle1/docking_1vjy/cand_0009_dock.pdbqt
 OpenBabel03012623503D

 24 25  0  0  1  0  0  0  0  0999 V2000
   17.0800   68.0600    3.5440 N   0  0  0  0  0  0  0  0  0  0  0  0
   15.7580   67.7870    3.7620 C   0  0  0  0  0  0  0  0  0  0  0  0
   14.8340   67.9940    2.9880 O   0  0  0  0  0  0  0  0  0  0  0  0
   17.7110   67.9310    4.3380 H   0  0  0  0  0  0  0  0  0  0  0  0
   17.5530   68.6780    2.3650 C   0  0  2  0  0  3  0  0  0  0  0  0
   18.6830   69.5480    2.4650 C   0  0  1  0  0  3  0  0  0  0  0  0
   17.5290   70.1160    2.2920 C   0  0  0  0  0  2  0  0  0  0  0  0
   20.1120   69.5370    2.7010 C   0  0  0  0  0  2  0  0  0  0  0  0
   20.5670   69.4610    4.1840 C   0  0  0  0  0  0  0  0  0  0  0  0
   22.0600   69.8430    4.2490 C   0  0  0  0  0  1  0  0  0  0  0  0
   20.4040   68.0350    4.7410 C   0  0  0  0  0  1  0  0  0  0  0  0
   19.7760   70.4440    5.0640 C   0  0  0  0  0  1  0  0  0  0  0  0
   15.5020   67.0760    5.3430 S   0  0  0  0  0  0  0  0  0  0  0  0
   14.3030   65.8220    4.9050 C   0  0  0  0  0  0  0  0  0  0  0  0
   14.6010   64.9960    3.8090 C   0  0  0  0  0  3  0  0  0  0  0  0
   13.1200   65.5840    5.6280 C   0  0  0  0  0  0  0  0  0  0  0  0
   13.7370   63.9660    3.4320 C   0  0  0  0  0  3  0  0  0  0  0  0
   12.2540   64.5460    5.2420 C   0  0  0  0  0  3  0  0  0  0  0  0
   12.5650   63.7410    4.1480 C   0  0  0  0  0  3  0  0  0  0  0  0
   12.7230   66.4300    6.7800 C   0  0  0  0  0  0  0  0  0  0  0  0
   11.3790   66.5920    6.9750 N   0  0  0  0  0  0  0  0  0  0  0  0
   13.5460   66.9580    7.5180 O   0  0  0  0  0  0  0  0  0  0  0  0
   11.0950   67.0720    7.8210 H   0  0  0  0  0  0  0  0  0  0  0  0
   10.6950   66.0060    6.5140 H   0  0  0  0  0  0  0  0  0  0  0  0
  1  2  1  0  0  0  0
  1  4  1  0  0  0  0
  2 13  1  0  0  0  0
  3  2  2  0  0  0  0
  5  6  1  0  0  0  0
  5  1  1  1  0  0  0
  6  8  1  1  0  0  0
  7  5  1  0  0  0  0
  7  6  1  0  0  0  0
  8  9  1  0  0  0  0
  9 10  1  0  0  0  0
  9 11  1  0  0  0  0
  9 12  1  0  0  0  0
 14 13  1  0  0  0  0
 14 16  1  0  0  0  0
 15 14  2  0  0  0  0
 16 20  1  0  0  0  0
 17 15  1  0  0  0  0
 17 19  2  0  0  0  0
 18 16  2  0  0  0  0
 19 18  1  0  0  0  0
 20 21  1  0  0  0  0
 20 22  2  0  0  0  0
 21 23  1  0  0  0  0
 24 21  1  0  0  0  0
M  END
>  <MODEL>
1

>  <REMARK>
 VINA RESULT:    -8.749      0.000      0.000
 INTER + INTRA:         -11.574
 INTER:                 -11.817
 INTRA:                   0.243
 UNBOUND:                 0.243
 SMILES CC(C)(C)CC1=C[C@@H]1NC(=O)Sc1ccccc1C(N)=O
 SMILES IDX 9 1 10 2 11 3 8 5 6 6 7 7 5 8 2 9 1 10 3 11 4 12 12 13 13 14
 SMILES IDX 14 15 18 16 15 17 17 18 16 19 19 20 20 21 21 22
 H PARENT 9 4 20 23 20 24

>  <TORSDO>
F 6

$$$$
research/ai4chem/closed_loop/ipf_cycle1/docking_1vjy/cand_0009_dock.pdbqt
 OpenBabel03012623503D

 24 25  0  0  1  0  0  0  0  0999 V2000
   15.4200   67.5000    7.5530 N   0  0  0  0  0  0  0  0  0  0  0  0
   14.4860   67.6870    6.5720 C   0  0  0  0  0  0  0  0  0  0  0  0
   14.5380   68.5020    5.6620 O   0  0  0  0  0  0  0  0  0  0  0  0
   15.1720   66.8540    8.3060 H   0  0  0  0  0  0  0  0  0  0  0  0
   16.5900   68.2860    7.6610 C   0  0  2  0  0  3  0  0  0  0  0  0
   17.6400   68.0670    6.7170 C   0  0  1  0  0  3  0  0  0  0  0  0
   17.8390   67.6170    7.9180 C   0  0  0  0  0  2  0  0  0  0  0  0
   17.9750   68.2580    5.3210 C   0  0  0  0  0  2  0  0  0  0  0  0
   19.3710   68.8690    5.0230 C   0  0  0  0  0  0  0  0  0  0  0  0
   19.4020   69.3010    3.5430 C   0  0  0  0  0  1  0  0  0  0  0  0
   20.4890   67.8350    5.2530 C   0  0  0  0  0  1  0  0  0  0  0  0
   19.6380   70.1080    5.8950 C   0  0  0  0  0  1  0  0  0  0  0  0
   13.1330   66.5890    6.7580 S   0  0  0  0  0  0  0  0  0  0  0  0
   13.4270   65.5270    5.3480 C   0  0  0  0  0  0  0  0  0  0  0  0
   14.7470   65.4210    4.8830 C   0  0  0  0  0  3  0  0  0  0  0  0
   12.4260   64.7590    4.7250 C   0  0  0  0  0  0  0  0  0  0  0  0
   15.0650   64.5780    3.8150 C   0  0  0  0  0  3  0  0  0  0  0  0
   12.7530   63.9140    3.6500 C   0  0  0  0  0  3  0  0  0  0  0  0
   14.0680   63.8250    3.1990 C   0  0  0  0  0  3  0  0  0  0  0  0
   11.0050   64.8380    5.1410 C   0  0  0  0  0  0  0  0  0  0  0  0
   10.6870   64.2270    6.3220 N   0  0  0  0  0  0  0  0  0  0  0  0
   10.1580   65.4130    4.4690 O   0  0  0  0  0  0  0  0  0  0  0  0
    9.7470   64.3700    6.6720 H   0  0  0  0  0  0  0  0  0  0  0  0
   11.3950   63.9340    6.9830 H   0  0  0  0  0  0  0  0  0  0  0  0
  1  4  1  0  0  0  0
  2 13  1  0  0  0  0
  2  1  1  0  0  0  0
  3  2  2  0  0  0  0
  5  1  1  6  0  0  0
  5  7  1  0  0  0  0
  6  8  1  6  0  0  0
  6  5  1  0  0  0  0
  6  7  1  0  0  0  0
  9 11  1  0  0  0  0
  9  8  1  0  0  0  0
  9 12  1  0  0  0  0
 10  9  1  0  0  0  0
 14 13  1  0  0  0  0
 15 14  1  0  0  0  0
 16 20  1  0  0  0  0
 16 14  2  0  0  0  0
 17 15  2  0  0  0  0
 18 16  1  0  0  0  0
 19 18  2  0  0  0  0
 19 17  1  0  0  0  0
 20 21  1  0  0  0  0
 21 23  1  0  0  0  0
 21 24  1  0  0  0  0
 22 20  2  0  0  0  0
M  END
>  <MODEL>
2

>  <REMARK>
 VINA RESULT:    -8.308      2.440      3.146
 INTER + INTRA:         -10.979
 INTER:                 -10.495
 INTRA:                  -0.484
 UNBOUND:                 0.243
 SMILES CC(C)(C)CC1=C[C@@H]1NC(=O)Sc1ccccc1C(N)=O
 SMILES IDX 9 1 10 2 11 3 8 5 6 6 7 7 5 8 2 9 1 10 3 11 4 12 12 13 13 14
 SMILES IDX 14 15 18 16 15 17 17 18 16 19 19 20 20 21 21 22
 H PARENT 9 4 20 23 20 24

>  <TORSDO>
F 6

$$$$
research/ai4chem/closed_loop/ipf_cycle1/docking_1vjy/cand_0009_dock.pdbqt
 OpenBabel03012623503D

 24 25  0  0  1  0  0  0  0  0999 V2000
   16.7200   67.9660    6.3460 N   0  0  0  0  0  0  0  0  0  0  0  0
   15.4200   68.0120    5.9240 C   0  0  0  0  0  0  0  0  0  0  0  0
   14.9660   68.7300    5.0440 O   0  0  0  0  0  0  0  0  0  0  0  0
   16.9140   67.3910    7.1690 H   0  0  0  0  0  0  0  0  0  0  0  0
   17.7290   68.8060    5.8240 C   0  0  2  0  0  3  0  0  0  0  0  0
   18.3800   68.4080    4.6160 C   0  0  1  0  0  3  0  0  0  0  0  0
   19.0640   68.2780    5.7110 C   0  0  0  0  0  2  0  0  0  0  0  0
   18.1520   68.2650    3.1930 C   0  0  0  0  0  2  0  0  0  0  0  0
   18.6360   69.4350    2.2940 C   0  0  0  0  0  0  0  0  0  0  0  0
   20.1630   69.5680    2.4570 C   0  0  0  0  0  1  0  0  0  0  0  0
   17.9820   70.7640    2.7140 C   0  0  0  0  0  1  0  0  0  0  0  0
   18.3290   69.1650    0.8100 C   0  0  0  0  0  1  0  0  0  0  0  0
   14.4160   66.8840    6.8130 S   0  0  0  0  0  0  0  0  0  0  0  0
   14.0160   65.7490    5.4890 C   0  0  0  0  0  0  0  0  0  0  0  0
   15.0450   65.4040    4.5980 C   0  0  0  0  0  3  0  0  0  0  0  0
   12.7550   65.1460    5.3300 C   0  0  0  0  0  0  0  0  0  0  0  0
   14.8240   64.4900    3.5660 C   0  0  0  0  0  3  0  0  0  0  0  0
   12.5380   64.2280    4.2870 C   0  0  0  0  0  3  0  0  0  0  0  0
   13.5720   63.9020    3.4110 C   0  0  0  0  0  3  0  0  0  0  0  0
   11.6100   65.4790    6.2130 C   0  0  0  0  0  0  0  0  0  0  0  0
   10.6290   64.5320    6.3110 N   0  0  0  0  0  0  0  0  0  0  0  0
   11.5400   66.5400    6.8190 O   0  0  0  0  0  0  0  0  0  0  0  0
    9.9010   64.6980    6.9950 H   0  0  0  0  0  0  0  0  0  0  0  0
   10.7650   63.5820    5.9910 H   0  0  0  0  0  0  0  0  0  0  0  0
  1  4  1  0  0  0  0
  2  1  1  0  0  0  0
  2 13  1  0  0  0  0
  3  2  2  0  0  0  0
  5  1  1  1  0  0  0
  6  8  1  1  0  0  0
  6  7  1  0  0  0  0
  6  5  1  0  0  0  0
  7  5  1  0  0  0  0
  9 10  1  0  0  0  0
  9 11  1  0  0  0  0
  9  8  1  0  0  0  0
 12  9  1  0  0  0  0
 14 13  1  0  0  0  0
 15 14  2  0  0  0  0
 16 14  1  0  0  0  0
 16 20  1  0  0  0  0
 17 15  1  0  0  0  0
 18 16  2  0  0  0  0
 19 17  2  0  0  0  0
 19 18  1  0  0  0  0
 20 21  1  0  0  0  0
 20 22  2  0  0  0  0
 21 23  1  0  0  0  0
 24 21  1  0  0  0  0
M  END
>  <MODEL>
3

>  <REMARK>
 VINA RESULT:    -8.291      1.634      2.526
 INTER + INTRA:         -10.956
 INTER:                 -10.734
 INTRA:                  -0.222
 UNBOUND:                 0.243
 SMILES CC(C)(C)CC1=C[C@@H]1NC(=O)Sc1ccccc1C(N)=O
 SMILES IDX 9 1 10 2 11 3 8 5 6 6 7 7 5 8 2 9 1 10 3 11 4 12 12 13 13 14
 SMILES IDX 14 15 18 16 15 17 17 18 16 19 19 20 20 21 21 22
 H PARENT 9 4 20 23 20 24

>  <TORSDO>
F 6

$$$$
research/ai4chem/closed_loop/ipf_cycle1/docking_1vjy/cand_0009_dock.pdbqt
 OpenBabel03012623503D

 24 25  0  0  1  0  0  0  0  0999 V2000
   16.4910   68.5630    5.7010 N   0  0  0  0  0  0  0  0  0  0  0  0
   16.3130   68.1990    7.0070 C   0  0  0  0  0  0  0  0  0  0  0  0
   15.9660   67.1000    7.4160 O   0  0  0  0  0  0  0  0  0  0  0  0
   16.6740   69.5530    5.5220 H   0  0  0  0  0  0  0  0  0  0  0  0
   16.2470   67.6880    4.6180 C   0  0  2  0  0  3  0  0  0  0  0  0
   16.7500   68.0510    3.3310 C   0  0  1  0  0  3  0  0  0  0  0  0
   15.4710   68.1770    3.5090 C   0  0  0  0  0  2  0  0  0  0  0  0
   17.9850   68.1810    2.5850 C   0  0  0  0  0  2  0  0  0  0  0  0
   18.5750   69.6130    2.4700 C   0  0  0  0  0  0  0  0  0  0  0  0
   19.6960   69.5880    1.4110 C   0  0  0  0  0  1  0  0  0  0  0  0
   19.1790   70.0730    3.8100 C   0  0  0  0  0  1  0  0  0  0  0  0
   17.5070   70.6250    2.0200 C   0  0  0  0  0  1  0  0  0  0  0  0
   16.6450   69.5320    8.0950 S   0  0  0  0  0  0  0  0  0  0  0  0
   18.4250   69.3790    8.2040 C   0  0  0  0  0  0  0  0  0  0  0  0
   19.1970   70.1930    7.3610 C   0  0  0  0  0  3  0  0  0  0  0  0
   19.0830   68.5380    9.1200 C   0  0  0  0  0  0  0  0  0  0  0  0
   20.5930   70.1640    7.4180 C   0  0  0  0  0  3  0  0  0  0  0  0
   20.4880   68.5130    9.1710 C   0  0  0  0  0  3  0  0  0  0  0  0
   21.2370   69.3250    8.3230 C   0  0  0  0  0  3  0  0  0  0  0  0
   18.3370   67.6290   10.0250 C   0  0  0  0  0  0  0  0  0  0  0  0
   17.8670   68.1820   11.1820 N   0  0  0  0  0  0  0  0  0  0  0  0
   18.1520   66.4480    9.7570 O   0  0  0  0  0  0  0  0  0  0  0  0
   17.2610   67.6030   11.7520 H   0  0  0  0  0  0  0  0  0  0  0  0
   17.8270   69.1830   11.3220 H   0  0  0  0  0  0  0  0  0  0  0  0
  1  2  1  0  0  0  0
  2  3  2  0  0  0  0
  2 13  1  0  0  0  0
  4  1  1  0  0  0  0
  5  1  1  1  0  0  0
  6  8  1  1  0  0  0
  6  7  1  0  0  0  0
  6  5  1  0  0  0  0
  7  5  1  0  0  0  0
  9  8  1  0  0  0  0
  9 11  1  0  0  0  0
 10  9  1  0  0  0  0
 12  9  1  0  0  0  0
 13 14  1  0  0  0  0
 14 16  1  0  0  0  0
 15 17  1  0  0  0  0
 15 14  2  0  0  0  0
 16 18  2  0  0  0  0
 16 20  1  0  0  0  0
 17 19  2  0  0  0  0
 19 18  1  0  0  0  0
 20 21  1  0  0  0  0
 21 24  1  0  0  0  0
 21 23  1  0  0  0  0
 22 20  2  0  0  0  0
M  END
>  <MODEL>
4

>  <REMARK>
 VINA RESULT:    -8.289      3.390      5.932
 INTER + INTRA:         -10.953
 INTER:                 -10.042
 INTRA:                  -0.911
 UNBOUND:                 0.243
 SMILES CC(C)(C)CC1=C[C@@H]1NC(=O)Sc1ccccc1C(N)=O
 SMILES IDX 9 1 10 2 11 3 8 5 6 6 7 7 5 8 2 9 1 10 3 11 4 12 12 13 13 14
 SMILES IDX 14 15 18 16 15 17 17 18 16 19 19 20 20 21 21 22
 H PARENT 9 4 20 23 20 24

>  <TORSDO>
F 6

$$$$
research/ai4chem/closed_loop/ipf_cycle1/docking_1vjy/cand_0009_dock.pdbqt
 OpenBabel03012623503D

 24 25  0  0  1  0  0  0  0  0999 V2000
   16.0760   67.0980    4.9870 N   0  0  0  0  0  0  0  0  0  0  0  0
   15.1020   66.4610    4.2700 C   0  0  0  0  0  0  0  0  0  0  0  0
   14.4300   66.9410    3.3670 O   0  0  0  0  0  0  0  0  0  0  0  0
   16.4660   66.5900    5.7840 H   0  0  0  0  0  0  0  0  0  0  0  0
   16.4110   68.4580    4.7910 C   0  0  2  0  0  3  0  0  0  0  0  0
   17.7910   68.7960    4.6320 C   0  0  1  0  0  3  0  0  0  0  0  0
   17.2480   69.1010    5.7710 C   0  0  0  0  0  2  0  0  0  0  0  0
   18.8920   68.6780    3.6990 C   0  0  0  0  0  2  0  0  0  0  0  0
   18.7360   69.4250    2.3470 C   0  0  0  0  0  0  0  0  0  0  0  0
   20.1410   69.6340    1.7470 C   0  0  0  0  0  1  0  0  0  0  0  0
   18.0810   70.8040    2.5480 C   0  0  0  0  0  1  0  0  0  0  0  0
   17.9000   68.6070    1.3480 C   0  0  0  0  0  1  0  0  0  0  0  0
   14.8970   64.8030    4.7990 S   0  0  0  0  0  0  0  0  0  0  0  0
   13.1180   64.6730    4.6580 C   0  0  0  0  0  0  0  0  0  0  0  0
   12.6080   63.8490    3.6420 C   0  0  0  0  0  3  0  0  0  0  0  0
   12.2160   65.2980    5.5380 C   0  0  0  0  0  0  0  0  0  0  0  0
   11.2320   63.6600    3.4960 C   0  0  0  0  0  3  0  0  0  0  0  0
   10.8320   65.1050    5.3840 C   0  0  0  0  0  3  0  0  0  0  0  0
   10.3450   64.2880    4.3660 C   0  0  0  0  0  3  0  0  0  0  0  0
   12.6760   66.2040    6.6190 C   0  0  0  0  0  0  0  0  0  0  0  0
   11.7030   66.9070    7.2720 N   0  0  0  0  0  0  0  0  0  0  0  0
   13.8590   66.3230    6.9120 O   0  0  0  0  0  0  0  0  0  0  0  0
   11.9910   67.4410    8.0840 H   0  0  0  0  0  0  0  0  0  0  0  0
   10.7220   66.6720    7.1900 H   0  0  0  0  0  0  0  0  0  0  0  0
  1  4  1  0  0  0  0
  2 13  1  0  0  0  0
  2  1  1  0  0  0  0
  3  2  2  0  0  0  0
  5  1  1  1  0  0  0
  5  7  1  0  0  0  0
  6  8  1  1  0  0  0
  6  5  1  0  0  0  0
  6  7  1  0  0  0  0
  9 11  1  0  0  0  0
  9  8  1  0  0  0  0
 10  9  1  0  0  0  0
 12  9  1  0  0  0  0
 14 13  1  0  0  0  0
 14 16  1  0  0  0  0
 15 14  2  0  0  0  0
 16 20  1  0  0  0  0
 17 15  1  0  0  0  0
 17 19  2  0  0  0  0
 18 16  2  0  0  0  0
 19 18  1  0  0  0  0
 20 22  2  0  0  0  0
 20 21  1  0  0  0  0
 21 23  1  0  0  0  0
 24 21  1  0  0  0  0
M  END
>  <MODEL>
5

>  <REMARK>
 VINA RESULT:    -8.129      1.509      2.420
 INTER + INTRA:         -10.736
 INTER:                 -10.955
 INTRA:                   0.218
 UNBOUND:                 0.243
 SMILES CC(C)(C)CC1=C[C@@H]1NC(=O)Sc1ccccc1C(N)=O
 SMILES IDX 9 1 10 2 11 3 8 5 6 6 7 7 5 8 2 9 1 10 3 11 4 12 12 13 13 14
 SMILES IDX 14 15 18 16 15 17 17 18 16 19 19 20 20 21 21 22
 H PARENT 9 4 20 23 20 24

>  <TORSDO>
F 6

$$$$
research/ai4chem/closed_loop/ipf_cycle1/docking_1vjy/cand_0009_dock.pdbqt
 OpenBabel03012623503D

 24 25  0  0  1  0  0  0  0  0999 V2000
   15.8250   66.5170    4.4400 N   0  0  0  0  0  0  0  0  0  0  0  0
   15.8530   67.8750    4.2860 C   0  0  0  0  0  0  0  0  0  0  0  0
   15.0890   68.5470    3.6080 O   0  0  0  0  0  0  0  0  0  0  0  0
   16.6040   66.0970    4.9520 H   0  0  0  0  0  0  0  0  0  0  0  0
   14.8950   65.6860    3.7750 C   0  0  2  0  0  3  0  0  0  0  0  0
   13.8370   65.1080    4.5430 C   0  0  1  0  0  3  0  0  0  0  0  0
   14.7960   64.3090    4.1850 C   0  0  0  0  0  2  0  0  0  0  0  0
   12.6130   65.4510    5.2370 C   0  0  0  0  0  2  0  0  0  0  0  0
   11.3560   64.6140    4.8770 C   0  0  0  0  0  0  0  0  0  0  0  0
   11.7470   63.6060    3.7770 C   0  0  0  0  0  1  0  0  0  0  0  0
   10.2280   65.5120    4.3380 C   0  0  0  0  0  1  0  0  0  0  0  0
   10.8400   63.8260    6.0940 C   0  0  0  0  0  1  0  0  0  0  0  0
   17.1620   68.5970    5.2010 S   0  0  0  0  0  0  0  0  0  0  0  0
   18.2720   68.9920    3.8550 C   0  0  0  0  0  0  0  0  0  0  0  0
   17.8000   68.7940    2.5480 C   0  0  0  0  0  3  0  0  0  0  0  0
   19.5560   69.5390    4.0340 C   0  0  0  0  0  0  0  0  0  0  0  0
   18.5900   69.1200    1.4430 C   0  0  0  0  0  3  0  0  0  0  0  0
   20.3460   69.8640    2.9170 C   0  0  0  0  0  3  0  0  0  0  0  0
   19.8610   69.6550    1.6280 C   0  0  0  0  0  3  0  0  0  0  0  0
   20.1350   69.7530    5.3820 C   0  0  0  0  0  0  0  0  0  0  0  0
   20.8550   68.7130    5.9020 N   0  0  0  0  0  0  0  0  0  0  0  0
   19.9800   70.7980    6.0020 O   0  0  0  0  0  0  0  0  0  0  0  0
   21.3480   68.8870    6.7690 H   0  0  0  0  0  0  0  0  0  0  0  0
   21.1660   67.9380    5.3320 H   0  0  0  0  0  0  0  0  0  0  0  0
  1  4  1  0  0  0  0
  2  1  1  0  0  0  0
  2 13  1  0  0  0  0
  3  2  2  0  0  0  0
  5  7  1  0  0  0  0
  5  1  1  1  0  0  0
  5  6  1  0  0  0  0
  6  8  1  1  0  0  0
  7  6  1  0  0  0  0
  9  8  1  0  0  0  0
  9 12  1  0  0  0  0
 10  9  1  0  0  0  0
 11  9  1  0  0  0  0
 14 16  1  0  0  0  0
 14 13  1  0  0  0  0
 15 14  2  0  0  0  0
 16 20  1  0  0  0  0
 17 19  2  0  0  0  0
 17 15  1  0  0  0  0
 18 16  2  0  0  0  0
 19 18  1  0  0  0  0
 20 21  1  0  0  0  0
 20 22  2  0  0  0  0
 21 23  1  0  0  0  0
 24 21  1  0  0  0  0
M  END
>  <MODEL>
6

>  <REMARK>
 VINA RESULT:    -8.070      2.126      7.783
 INTER + INTRA:         -10.658
 INTER:                 -10.748
 INTRA:                   0.090
 UNBOUND:                 0.243
 SMILES CC(C)(C)CC1=C[C@@H]1NC(=O)Sc1ccccc1C(N)=O
 SMILES IDX 9 1 10 2 11 3 8 5 6 6 7 7 5 8 2 9 1 10 3 11 4 12 12 13 13 14
 SMILES IDX 14 15 18 16 15 17 17 18 16 19 19 20 20 21 21 22
 H PARENT 9 4 20 23 20 24

>  <TORSDO>
F 6

$$$$
research/ai4chem/closed_loop/ipf_cycle1/docking_1vjy/cand_0009_dock.pdbqt
 OpenBabel03012623503D

 24 25  0  0  1  0  0  0  0  0999 V2000
   18.3770   68.1550    5.5960 N   0  0  0  0  0  0  0  0  0  0  0  0
   18.5840   68.6010    6.8720 C   0  0  0  0  0  0  0  0  0  0  0  0
   18.0140   69.5340    7.4190 O   0  0  0  0  0  0  0  0  0  0  0  0
   19.0170   67.4360    5.2520 H   0  0  0  0  0  0  0  0  0  0  0  0
   17.4690   68.7700    4.7040 C   0  0  2  0  0  3  0  0  0  0  0  0
   16.1340   68.2650    4.6460 C   0  0  1  0  0  3  0  0  0  0  0  0
   16.9070   67.9710    3.6460 C   0  0  0  0  0  2  0  0  0  0  0  0
   14.9060   68.2000    5.4120 C   0  0  0  0  0  2  0  0  0  0  0  0
   14.6450   66.8820    6.1900 C   0  0  0  0  0  0  0  0  0  0  0  0
   15.6200   66.8250    7.3830 C   0  0  0  0  0  1  0  0  0  0  0  0
   14.8940   65.6530    5.2960 C   0  0  0  0  0  1  0  0  0  0  0  0
   13.2070   66.8290    6.7360 C   0  0  0  0  0  1  0  0  0  0  0  0
   19.8140   67.6570    7.6890 S   0  0  0  0  0  0  0  0  0  0  0  0
   20.6020   68.9600    8.6280 C   0  0  0  0  0  0  0  0  0  0  0  0
   21.6200   69.6890    7.9940 C   0  0  0  0  0  3  0  0  0  0  0  0
   20.2190   69.3260    9.9320 C   0  0  0  0  0  0  0  0  0  0  0  0
   22.2530   70.7510    8.6450 C   0  0  0  0  0  3  0  0  0  0  0  0
   20.8610   70.3950   10.5810 C   0  0  0  0  0  3  0  0  0  0  0  0
   21.8730   71.1040    9.9370 C   0  0  0  0  0  3  0  0  0  0  0  0
   19.1710   68.5870   10.6770 C   0  0  0  0  0  0  0  0  0  0  0  0
   17.8900   69.0390   10.5240 N   0  0  0  0  0  0  0  0  0  0  0  0
   19.4310   67.6280   11.3930 O   0  0  0  0  0  0  0  0  0  0  0  0
   17.1550   68.4760   10.9360 H   0  0  0  0  0  0  0  0  0  0  0  0
   17.6320   69.6840    9.7890 H   0  0  0  0  0  0  0  0  0  0  0  0
  1  2  1  0  0  0  0
  2  3  2  0  0  0  0
  2 13  1  0  0  0  0
  4  1  1  0  0  0  0
  5  1  1  1  0  0  0
  6  5  1  0  0  0  0
  6  8  1  1  0  0  0
  7  6  1  0  0  0  0
  7  5  1  0  0  0  0
  8  9  1  0  0  0  0
  9 12  1  0  0  0  0
  9 10  1  0  0  0  0
 11  9  1  0  0  0  0
 13 14  1  0  0  0  0
 14 16  1  0  0  0  0
 15 14  2  0  0  0  0
 15 17  1  0  0  0  0
 16 18  2  0  0  0  0
 16 20  1  0  0  0  0
 17 19  2  0  0  0  0
 19 18  1  0  0  0  0
 20 22  2  0  0  0  0
 21 20  1  0  0  0  0
 21 23  1  0  0  0  0
 24 21  1  0  0  0  0
M  END
>  <MODEL>
7

>  <REMARK>
 VINA RESULT:    -8.063      4.123      7.585
 INTER + INTRA:         -10.648
 INTER:                  -9.594
 INTRA:                  -1.054
 UNBOUND:                 0.243
 SMILES CC(C)(C)CC1=C[C@@H]1NC(=O)Sc1ccccc1C(N)=O
 SMILES IDX 9 1 10 2 11 3 8 5 6 6 7 7 5 8 2 9 1 10 3 11 4 12 12 13 13 14
 SMILES IDX 14 15 18 16 15 17 17 18 16 19 19 20 20 21 21 22
 H PARENT 9 4 20 23 20 24

>  <TORSDO>
F 6

$$$$
research/ai4chem/closed_loop/ipf_cycle1/docking_1vjy/cand_0009_dock.pdbqt
 OpenBabel03012623503D

 24 25  0  0  1  0  0  0  0  0999 V2000
   20.2680   69.9460    5.9950 N   0  0  0  0  0  0  0  0  0  0  0  0
   20.0780   69.0610    4.9710 C   0  0  0  0  0  0  0  0  0  0  0  0
   20.5320   67.9280    4.8940 O   0  0  0  0  0  0  0  0  0  0  0  0
   19.9120   70.8940    5.8540 H   0  0  0  0  0  0  0  0  0  0  0  0
   21.0810   69.6620    7.1170 C   0  0  2  0  0  3  0  0  0  0  0  0
   20.4640   69.0750    8.2650 C   0  0  1  0  0  3  0  0  0  0  0  0
   20.7840   70.3290    8.3590 C   0  0  0  0  0  2  0  0  0  0  0  0
   19.8710   67.8390    8.7310 C   0  0  0  0  0  2  0  0  0  0  0  0
   18.4910   67.9570    9.4330 C   0  0  0  0  0  0  0  0  0  0  0  0
   17.8170   66.5700    9.4070 C   0  0  0  0  0  1  0  0  0  0  0  0
   17.5790   68.9570    8.6980 C   0  0  0  0  0  1  0  0  0  0  0  0
   18.6440   68.3940   10.9010 C   0  0  0  0  0  1  0  0  0  0  0  0
   19.0670   69.7440    3.7130 S   0  0  0  0  0  0  0  0  0  0  0  0
   17.5750   68.7960    3.9950 C   0  0  0  0  0  0  0  0  0  0  0  0
   17.4240   68.1870    5.2500 C   0  0  0  0  0  3  0  0  0  0  0  0
   16.5340   68.6800    3.0570 C   0  0  0  0  0  0  0  0  0  0  0  0
   16.2670   67.4680    5.5630 C   0  0  0  0  0  3  0  0  0  0  0  0
   15.3740   67.9540    3.3770 C   0  0  0  0  0  3  0  0  0  0  0  0
   15.2430   67.3520    4.6270 C   0  0  0  0  0  3  0  0  0  0  0  0
   16.6310   69.2720    1.7000 C   0  0  0  0  0  0  0  0  0  0  0  0
   15.6330   70.1350    1.3450 N   0  0  0  0  0  0  0  0  0  0  0  0
   17.5500   69.0050    0.9350 O   0  0  0  0  0  0  0  0  0  0  0  0
   15.7470   70.6310    0.4690 H   0  0  0  0  0  0  0  0  0  0  0  0
   14.9920   70.5240    2.0240 H   0  0  0  0  0  0  0  0  0  0  0  0
  2  1  1  0  0  0  0
  3  2  2  0  0  0  0
  4  1  1  0  0  0  0
  5  1  1  6  0  0  0
  5  6  1  0  0  0  0
  5  7  1  0  0  0  0
  6  7  1  0  0  0  0
  6  8  1  6  0  0  0
  8  9  1  0  0  0  0
  9 12  1  0  0  0  0
 10  9  1  0  0  0  0
 11  9  1  0  0  0  0
 13 14  1  0  0  0  0
 13  2  1  0  0  0  0
 14 15  1  0  0  0  0
 15 17  2  0  0  0  0
 16 18  1  0  0  0  0
 16 14  2  0  0  0  0
 18 19  2  0  0  0  0
 19 17  1  0  0  0  0
 20 16  1  0  0  0  0
 21 20  1  0  0  0  0
 21 24  1  0  0  0  0
 22 20  2  0  0  0  0
 23 21  1  0  0  0  0
M  END
>  <MODEL>
8

>  <REMARK>
 VINA RESULT:    -8.060      3.669      5.877
 INTER + INTRA:         -10.643
 INTER:                  -9.942
 INTRA:                  -0.702
 UNBOUND:                 0.243
 SMILES CC(C)(C)CC1=C[C@@H]1NC(=O)Sc1ccccc1C(N)=O
 SMILES IDX 9 1 10 2 11 3 8 5 6 6 7 7 5 8 2 9 1 10 3 11 4 12 12 13 13 14
 SMILES IDX 14 15 18 16 15 17 17 18 16 19 19 20 20 21 21 22
 H PARENT 9 4 20 23 20 24

>  <TORSDO>
F 6

$$$$
research/ai4chem/closed_loop/ipf_cycle1/docking_1vjy/cand_0009_dock.pdbqt
 OpenBabel03012623503D

 24 25  0  0  1  0  0  0  0  0999 V2000
   18.9150   69.6280    6.7910 N   0  0  0  0  0  0  0  0  0  0  0  0
   19.8260   68.8390    6.1440 C   0  0  0  0  0  0  0  0  0  0  0  0
   20.0550   67.6590    6.3670 O   0  0  0  0  0  0  0  0  0  0  0  0
   18.9250   70.6240    6.5600 H   0  0  0  0  0  0  0  0  0  0  0  0
   18.1230   69.1650    7.8660 C   0  0  2  0  0  3  0  0  0  0  0  0
   16.9220   68.4510    7.5620 C   0  0  1  0  0  3  0  0  0  0  0  0
   16.7790   69.6690    7.9890 C   0  0  0  0  0  2  0  0  0  0  0  0
   16.4510   67.1870    7.0360 C   0  0  0  0  0  2  0  0  0  0  0  0
   15.0580   67.1990    6.3510 C   0  0  0  0  0  0  0  0  0  0  0  0
   14.9190   65.9100    5.5180 C   0  0  0  0  0  1  0  0  0  0  0  0
   14.9140   68.4080    5.4080 C   0  0  0  0  0  1  0  0  0  0  0  0
   13.9230   67.2290    7.3900 C   0  0  0  0  0  1  0  0  0  0  0  0
   20.6800   69.7320    4.9020 S   0  0  0  0  0  0  0  0  0  0  0  0
   19.5510   69.4790    3.5370 C   0  0  0  0  0  0  0  0  0  0  0  0
   18.2240   69.1420    3.8490 C   0  0  0  0  0  3  0  0  0  0  0  0
   19.9040   69.6540    2.1860 C   0  0  0  0  0  0  0  0  0  0  0  0
   17.2720   68.9720    2.8410 C   0  0  0  0  0  3  0  0  0  0  0  0
   18.9420   69.4800    1.1770 C   0  0  0  0  0  3  0  0  0  0  0  0
   17.6300   69.1410    1.5060 C   0  0  0  0  0  3  0  0  0  0  0  0
   21.2910   69.9830    1.7760 C   0  0  0  0  0  0  0  0  0  0  0  0
   21.4230   70.9300    0.7990 N   0  0  0  0  0  0  0  0  0  0  0  0
   22.2670   69.4400    2.2780 O   0  0  0  0  0  0  0  0  0  0  0  0
   22.3630   71.2440    0.5900 H   0  0  0  0  0  0  0  0  0  0  0  0
   20.6560   71.5300    0.5250 H   0  0  0  0  0  0  0  0  0  0  0  0
  2  3  2  0  0  0  0
  2  1  1  0  0  0  0
  4  1  1  0  0  0  0
  5  1  1  6  0  0  0
  5  7  1  0  0  0  0
  6  8  1  6  0  0  0
  6  5  1  0  0  0  0
  6  7  1  0  0  0  0
  9  8  1  0  0  0  0
  9 12  1  0  0  0  0
 10  9  1  0  0  0  0
 11  9  1  0  0  0  0
 13  2  1  0  0  0  0
 14 15  1  0  0  0  0
 14 13  1  0  0  0  0
 16 14  2  0  0  0  0
 17 15  2  0  0  0  0
 18 19  2  0  0  0  0
 18 16  1  0  0  0  0
 19 17  1  0  0  0  0
 20 16  1  0  0  0  0
 20 22  2  0  0  0  0
 21 20  1  0  0  0  0
 23 21  1  0  0  0  0
 24 21  1  0  0  0  0
M  END
>  <MODEL>
9

>  <REMARK>
 VINA RESULT:    -8.012      3.539      7.384
 INTER + INTRA:         -10.579
 INTER:                 -10.217
 INTRA:                  -0.362
 UNBOUND:                 0.243
 SMILES CC(C)(C)CC1=C[C@@H]1NC(=O)Sc1ccccc1C(N)=O
 SMILES IDX 9 1 10 2 11 3 8 5 6 6 7 7 5 8 2 9 1 10 3 11 4 12 12 13 13 14
 SMILES IDX 14 15 18 16 15 17 17 18 16 19 19 20 20 21 21 22
 H PARENT 9 4 20 23 20 24

>  <TORSDO>
F 6

$$$$
research/ai4chem/closed_loop/ipf_cycle1/docking_1vjy/cand_0009_dock.pdbqt
 OpenBabel03012623503D

 24 25  0  0  1  0  0  0  0  0999 V2000
   15.2670   66.3960    5.6660 N   0  0  0  0  0  0  0  0  0  0  0  0
   15.3350   67.7140    6.0260 C   0  0  0  0  0  0  0  0  0  0  0  0
   14.6930   68.6350    5.5420 O   0  0  0  0  0  0  0  0  0  0  0  0
   15.9530   65.7690    6.0920 H   0  0  0  0  0  0  0  0  0  0  0  0
   14.4410   65.9260    4.6200 C   0  0  2  0  0  3  0  0  0  0  0  0
   13.3460   65.0720    4.9570 C   0  0  1  0  0  3  0  0  0  0  0  0
   14.3690   64.5060    4.3950 C   0  0  0  0  0  2  0  0  0  0  0  0
   12.0490   65.0830    5.6020 C   0  0  0  0  0  2  0  0  0  0  0  0
   10.8550   64.5560    4.7620 C   0  0  0  0  0  0  0  0  0  0  0  0
    9.9240   63.7560    5.6960 C   0  0  0  0  0  1  0  0  0  0  0  0
   11.3380   63.6220    3.6370 C   0  0  0  0  0  1  0  0  0  0  0  0
   10.0470   65.7130    4.1480 C   0  0  0  0  0  1  0  0  0  0  0  0
   16.4950   67.9670    7.3150 S   0  0  0  0  0  0  0  0  0  0  0  0
   17.9970   68.0340    6.3430 C   0  0  0  0  0  0  0  0  0  0  0  0
   17.8680   68.3110    4.9720 C   0  0  0  0  0  3  0  0  0  0  0  0
   19.2860   67.8830    6.8840 C   0  0  0  0  0  0  0  0  0  0  0  0
   18.9950   68.4240    4.1550 C   0  0  0  0  0  3  0  0  0  0  0  0
   20.4160   67.9960    6.0560 C   0  0  0  0  0  3  0  0  0  0  0  0
   20.2680   68.2670    4.6970 C   0  0  0  0  0  3  0  0  0  0  0  0
   19.5020   67.5620    8.3160 C   0  0  0  0  0  0  0  0  0  0  0  0
   19.6800   68.6280    9.1530 N   0  0  0  0  0  0  0  0  0  0  0  0
   19.5240   66.4100    8.7310 O   0  0  0  0  0  0  0  0  0  0  0  0
   19.7150   68.4290   10.1450 H   0  0  0  0  0  0  0  0  0  0  0  0
   19.4610   69.5740    8.8720 H   0  0  0  0  0  0  0  0  0  0  0  0
  1  2  1  0  0  0  0
  1  4  1  0  0  0  0
  2 13  1  0  0  0  0
  3  2  2  0  0  0  0
  5  6  1  0  0  0  0
  5  1  1  1  0  0  0
  6  8  1  1  0  0  0
  7  5  1  0  0  0  0
  7  6  1  0  0  0  0
  9  8  1  0  0  0  0
  9 10  1  0  0  0  0
 11  9  1  0  0  0  0
 12  9  1  0  0  0  0
 14 16  1  0  0  0  0
 14 13  1  0  0  0  0
 15 14  2  0  0  0  0
 16 20  1  0  0  0  0
 17 19  2  0  0  0  0
 17 15  1  0  0  0  0
 18 16  2  0  0  0  0
 19 18  1  0  0  0  0
 20 22  2  0  0  0  0
 20 21  1  0  0  0  0
 21 23  1  0  0  0  0
 24 21  1  0  0  0  0
M  END
>  <MODEL>
10

>  <REMARK>
 VINA RESULT:    -7.984      2.783      7.657
 INTER + INTRA:         -10.541
 INTER:                 -10.351
 INTRA:                  -0.190
 UNBOUND:                 0.243
 SMILES CC(C)(C)CC1=C[C@@H]1NC(=O)Sc1ccccc1C(N)=O
 SMILES IDX 9 1 10 2 11 3 8 5 6 6 7 7 5 8 2 9 1 10 3 11 4 12 12 13 13 14
 SMILES IDX 14 15 18 16 15 17 17 18 16 19 19 20 20 21 21 22
 H PARENT 9 4 20 23 20 24

>  <TORSDO>
F 6

$$$$
research/ai4chem/closed_loop/ipf_cycle1/docking_1vjy/cand_0009_dock.pdbqt
 OpenBabel03012623503D

 24 25  0  0  1  0  0  0  0  0999 V2000
   16.6750   67.4570    6.6210 N   0  0  0  0  0  0  0  0  0  0  0  0
   15.7830   67.9770    5.7250 C   0  0  0  0  0  0  0  0  0  0  0  0
   15.2650   69.0840    5.7710 O   0  0  0  0  0  0  0  0  0  0  0  0
   16.9270   66.4740    6.5000 H   0  0  0  0  0  0  0  0  0  0  0  0
   17.0950   68.1510    7.7790 C   0  0  2  0  0  3  0  0  0  0  0  0
   18.4590   68.5710    7.8570 C   0  0  1  0  0  3  0  0  0  0  0  0
   18.1230   67.5570    8.5940 C   0  0  0  0  0  2  0  0  0  0  0  0
   19.3930   69.5200    7.2880 C   0  0  0  0  0  2  0  0  0  0  0  0
   20.0170   69.1400    5.9180 C   0  0  0  0  0  0  0  0  0  0  0  0
   19.0150   69.5200    4.8090 C   0  0  0  0  0  1  0  0  0  0  0  0
   20.2880   67.6260    5.8340 C   0  0  0  0  0  1  0  0  0  0  0  0
   21.3290   69.9050    5.6690 C   0  0  0  0  0  1  0  0  0  0  0  0
   15.4320   66.8400    4.4380 S   0  0  0  0  0  0  0  0  0  0  0  0
   13.9780   66.0600    5.1300 C   0  0  0  0  0  0  0  0  0  0  0  0
   13.3300   66.7200    6.1860 C   0  0  0  0  0  3  0  0  0  0  0  0
   13.4240   64.8640    4.6390 C   0  0  0  0  0  0  0  0  0  0  0  0
   12.1640   66.1980    6.7490 C   0  0  0  0  0  3  0  0  0  0  0  0
   12.2510   64.3420    5.2120 C   0  0  0  0  0  3  0  0  0  0  0  0
   11.6250   65.0100    6.2630 C   0  0  0  0  0  3  0  0  0  0  0  0
   14.0650   64.0940    3.5450 C   0  0  0  0  0  0  0  0  0  0  0  0
   13.2230   63.5480    2.6170 N   0  0  0  0  0  0  0  0  0  0  0  0
   15.2790   63.9500    3.4720 O   0  0  0  0  0  0  0  0  0  0  0  0
   13.6520   63.1180    1.8070 H   0  0  0  0  0  0  0  0  0  0  0  0
   12.2530   63.8260    2.5420 H   0  0  0  0  0  0  0  0  0  0  0  0
  2  3  2  0  0  0  0
  2  1  1  0  0  0  0
  4  1  1  0  0  0  0
  5  1  1  6  0  0  0
  5  6  1  0  0  0  0
  5  7  1  0  0  0  0
  6  8  1  6  0  0  0
  6  7  1  0  0  0  0
  9  8  1  0  0  0  0
 10  9  1  0  0  0  0
 11  9  1  0  0  0  0
 12  9  1  0  0  0  0
 13 14  1  0  0  0  0
 13  2  1  0  0  0  0
 14 15  1  0  0  0  0
 15 17  2  0  0  0  0
 16 14  2  0  0  0  0
 16 18  1  0  0  0  0
 18 19  2  0  0  0  0
 19 17  1  0  0  0  0
 20 16  1  0  0  0  0
 21 20  1  0  0  0  0
 22 20  2  0  0  0  0
 23 21  1  0  0  0  0
 24 21  1  0  0  0  0
M  END
>  <MODEL>
11

>  <REMARK>
 VINA RESULT:    -7.906      2.604      3.683
 INTER + INTRA:         -10.436
 INTER:                 -10.258
 INTRA:                  -0.178
 UNBOUND:                 0.243
 SMILES CC(C)(C)CC1=C[C@@H]1NC(=O)Sc1ccccc1C(N)=O
 SMILES IDX 9 1 10 2 11 3 8 5 6 6 7 7 5 8 2 9 1 10 3 11 4 12 12 13 13 14
 SMILES IDX 14 15 18 16 15 17 17 18 16 19 19 20 20 21 21 22
 H PARENT 9 4 20 23 20 24

>  <TORSDO>
F 6

$$$$
research/ai4chem/closed_loop/ipf_cycle1/docking_1vjy/cand_0009_dock.pdbqt
 OpenBabel03012623503D

 24 25  0  0  1  0  0  0  0  0999 V2000
   18.4020   68.2410    5.2500 N   0  0  0  0  0  0  0  0  0  0  0  0
   18.6500   68.6380    6.5340 C   0  0  0  0  0  0  0  0  0  0  0  0
   18.0360   69.4870    7.1650 O   0  0  0  0  0  0  0  0  0  0  0  0
   19.0790   67.6000    4.8300 H   0  0  0  0  0  0  0  0  0  0  0  0
   17.3890   68.8140    4.4480 C   0  0  2  0  0  3  0  0  0  0  0  0
   16.0600   68.3060    4.5750 C   0  0  1  0  0  3  0  0  0  0  0  0
   16.7080   67.9690    3.5030 C   0  0  0  0  0  2  0  0  0  0  0  0
   14.9340   68.2740    5.4860 C   0  0  0  0  0  2  0  0  0  0  0  0
   14.6910   66.9370    6.2390 C   0  0  0  0  0  0  0  0  0  0  0  0
   15.7040   66.8460    7.3980 C   0  0  0  0  0  1  0  0  0  0  0  0
   14.9050   65.7300    5.3070 C   0  0  0  0  0  1  0  0  0  0  0  0
   13.2720   66.8770    6.8290 C   0  0  0  0  0  1  0  0  0  0  0  0
   20.0070   67.7700    7.2240 S   0  0  0  0  0  0  0  0  0  0  0  0
   20.5080   68.9570    8.4660 C   0  0  0  0  0  0  0  0  0  0  0  0
   20.1190   68.7090    9.7920 C   0  0  0  0  0  3  0  0  0  0  0  0
   21.3110   70.0800    8.1950 C   0  0  0  0  0  0  0  0  0  0  0  0
   20.5100   69.5640   10.8250 C   0  0  0  0  0  3  0  0  0  0  0  0
   21.6990   70.9380    9.2390 C   0  0  0  0  0  3  0  0  0  0  0  0
   21.2990   70.6770   10.5490 C   0  0  0  0  0  3  0  0  0  0  0  0
   21.7390   70.4230    6.8170 C   0  0  0  0  0  0  0  0  0  0  0  0
   22.9880   70.0050    6.4520 N   0  0  0  0  0  0  0  0  0  0  0  0
   21.0210   71.0480    6.0470 O   0  0  0  0  0  0  0  0  0  0  0  0
   23.2470   70.1340    5.4810 H   0  0  0  0  0  0  0  0  0  0  0  0
   23.5040   69.3210    6.9890 H   0  0  0  0  0  0  0  0  0  0  0  0
  1  2  1  0  0  0  0
  2  3  2  0  0  0  0
  2 13  1  0  0  0  0
  4  1  1  0  0  0  0
  5  6  1  0  0  0  0
  5  1  1  1  0  0  0
  6  8  1  1  0  0  0
  7  5  1  0  0  0  0
  7  6  1  0  0  0  0
  8  9  1  0  0  0  0
  9 12  1  0  0  0  0
  9 10  1  0  0  0  0
 11  9  1  0  0  0  0
 13 14  1  0  0  0  0
 14 15  1  0  0  0  0
 15 17  2  0  0  0  0
 16 14  2  0  0  0  0
 16 18  1  0  0  0  0
 18 19  2  0  0  0  0
 19 17  1  0  0  0  0
 20 16  1  0  0  0  0
 21 20  1  0  0  0  0
 21 24  1  0  0  0  0
 22 20  2  0  0  0  0
 23 21  1  0  0  0  0
M  END
>  <MODEL>
12

>  <REMARK>
 VINA RESULT:    -7.899      4.008      7.962
 INTER + INTRA:         -10.427
 INTER:                  -9.645
 INTRA:                  -0.782
 UNBOUND:                 0.243
 SMILES CC(C)(C)CC1=C[C@@H]1NC(=O)Sc1ccccc1C(N)=O
 SMILES IDX 9 1 10 2 11 3 8 5 6 6 7 7 5 8 2 9 1 10 3 11 4 12 12 13 13 14
 SMILES IDX 14 15 18 16 15 17 17 18 16 19 19 20 20 21 21 22
 H PARENT 9 4 20 23 20 24

>  <TORSDO>
F 6

$$$$
research/ai4chem/closed_loop/ipf_cycle1/docking_1vjy/cand_0009_dock.pdbqt
 OpenBabel03012623503D

 24 25  0  0  1  0  0  0  0  0999 V2000
   14.5580   67.4240    5.3810 N   0  0  0  0  0  0  0  0  0  0  0  0
   15.2320   67.1130    4.2330 C   0  0  0  0  0  0  0  0  0  0  0  0
   15.4680   65.9910    3.8070 O   0  0  0  0  0  0  0  0  0  0  0  0
   14.5440   68.4090    5.6520 H   0  0  0  0  0  0  0  0  0  0  0  0
   14.0680   66.4440    6.2740 C   0  0  2  0  0  3  0  0  0  0  0  0
   12.6540   66.3570    6.4690 C   0  0  1  0  0  3  0  0  0  0  0  0
   13.3400   66.8850    7.4360 C   0  0  0  0  0  2  0  0  0  0  0  0
   11.4350   65.9570    5.7980 C   0  0  0  0  0  2  0  0  0  0  0  0
   11.4120   64.5240    5.2010 C   0  0  0  0  0  0  0  0  0  0  0  0
   11.6130   63.5180    6.3530 C   0  0  0  0  0  1  0  0  0  0  0  0
   12.5490   64.3310    4.1800 C   0  0  0  0  0  1  0  0  0  0  0  0
   10.0650   64.2210    4.5230 C   0  0  0  0  0  1  0  0  0  0  0  0
   15.7540   68.5560    3.3860 S   0  0  0  0  0  0  0  0  0  0  0  0
   17.4590   68.6060    3.9260 C   0  0  0  0  0  0  0  0  0  0  0  0
   17.7720   67.9770    5.1410 C   0  0  0  0  0  3  0  0  0  0  0  0
   18.5000   69.1850    3.1770 C   0  0  0  0  0  0  0  0  0  0  0  0
   19.0880   67.9340    5.6080 C   0  0  0  0  0  3  0  0  0  0  0  0
   19.8220   69.1400    3.6540 C   0  0  0  0  0  3  0  0  0  0  0  0
   20.1110   68.5150    4.8650 C   0  0  0  0  0  3  0  0  0  0  0  0
   18.2460   69.8920    1.8970 C   0  0  0  0  0  0  0  0  0  0  0  0
   18.0530   71.2420    1.9820 N   0  0  0  0  0  0  0  0  0  0  0  0
   18.2070   69.3040    0.8240 O   0  0  0  0  0  0  0  0  0  0  0  0
   17.9920   71.7500    1.1080 H   0  0  0  0  0  0  0  0  0  0  0  0
   18.2850   71.7670    2.8150 H   0  0  0  0  0  0  0  0  0  0  0  0
  1  4  1  0  0  0  0
  2  1  1  0  0  0  0
  3  2  2  0  0  0  0
  5  1  1  6  0  0  0
  5  6  1  0  0  0  0
  5  7  1  0  0  0  0
  6  8  1  6  0  0  0
  6  7  1  0  0  0  0
  9  8  1  0  0  0  0
  9 10  1  0  0  0  0
 11  9  1  0  0  0  0
 12  9  1  0  0  0  0
 13 14  1  0  0  0  0
 13  2  1  0  0  0  0
 14 15  1  0  0  0  0
 15 17  2  0  0  0  0
 16 18  1  0  0  0  0
 16 14  2  0  0  0  0
 18 19  2  0  0  0  0
 19 17  1  0  0  0  0
 20 21  1  0  0  0  0
 20 16  1  0  0  0  0
 21 24  1  0  0  0  0
 22 20  2  0  0  0  0
 23 21  1  0  0  0  0
M  END
>  <MODEL>
13

>  <REMARK>
 VINA RESULT:    -7.861      1.979      7.771
 INTER + INTRA:         -10.376
 INTER:                 -10.006
 INTRA:                  -0.370
 UNBOUND:                 0.243
 SMILES CC(C)(C)CC1=C[C@@H]1NC(=O)Sc1ccccc1C(N)=O
 SMILES IDX 9 1 10 2 11 3 8 5 6 6 7 7 5 8 2 9 1 10 3 11 4 12 12 13 13 14
 SMILES IDX 14 15 18 16 15 17 17 18 16 19 19 20 20 21 21 22
 H PARENT 9 4 20 23 20 24

>  <TORSDO>
F 6

$$$$
research/ai4chem/closed_loop/ipf_cycle1/docking_1vjy/cand_0009_dock.pdbqt
 OpenBabel03012623503D

 24 25  0  0  1  0  0  0  0  0999 V2000
   17.2270   67.6700    8.2550 N   0  0  0  0  0  0  0  0  0  0  0  0
   16.4710   68.7490    7.8910 C   0  0  0  0  0  0  0  0  0  0  0  0
   16.4240   69.8310    8.4600 O   0  0  0  0  0  0  0  0  0  0  0  0
   17.0670   66.8030    7.7370 H   0  0  0  0  0  0  0  0  0  0  0  0
   18.0500   67.6580    9.4040 C   0  0  2  0  0  3  0  0  0  0  0  0
   19.3590   68.2230    9.3020 C   0  0  1  0  0  3  0  0  0  0  0  0
   19.2900   66.9280    9.3470 C   0  0  0  0  0  2  0  0  0  0  0  0
   20.0450   69.4910    9.1650 C   0  0  0  0  0  2  0  0  0  0  0  0
   21.2070   69.7600   10.1580 C   0  0  0  0  0  0  0  0  0  0  0  0
   21.5900   71.2500   10.0600 C   0  0  0  0  0  1  0  0  0  0  0  0
   22.4440   68.9130    9.8070 C   0  0  0  0  0  1  0  0  0  0  0  0
   20.7850   69.4640   11.6080 C   0  0  0  0  0  1  0  0  0  0  0  0
   15.5250   68.4150    6.4550 S   0  0  0  0  0  0  0  0  0  0  0  0
   16.8220   68.5100    5.2250 C   0  0  0  0  0  0  0  0  0  0  0  0
   18.0970   68.9040    5.6600 C   0  0  0  0  0  3  0  0  0  0  0  0
   16.6470   68.1600    3.8740 C   0  0  0  0  0  0  0  0  0  0  0  0
   19.1720   68.9600    4.7700 C   0  0  0  0  0  3  0  0  0  0  0  0
   17.7320   68.2200    2.9830 C   0  0  0  0  0  3  0  0  0  0  0  0
   18.9900   68.6180    3.4330 C   0  0  0  0  0  3  0  0  0  0  0  0
   15.3240   67.7600    3.3340 C   0  0  0  0  0  0  0  0  0  0  0  0
   14.8030   68.5640    2.3580 N   0  0  0  0  0  0  0  0  0  0  0  0
   14.7260   66.7700    3.7350 O   0  0  0  0  0  0  0  0  0  0  0  0
   13.9580   68.2410    1.9030 H   0  0  0  0  0  0  0  0  0  0  0  0
   15.3630   69.2530    1.8740 H   0  0  0  0  0  0  0  0  0  0  0  0
  2  1  1  0  0  0  0
  2  3  2  0  0  0  0
  4  1  1  0  0  0  0
  5  1  1  6  0  0  0
  6  8  1  6  0  0  0
  6  7  1  0  0  0  0
  6  5  1  0  0  0  0
  7  5  1  0  0  0  0
  8  9  1  0  0  0  0
  9 12  1  0  0  0  0
 10  9  1  0  0  0  0
 11  9  1  0  0  0  0
 13  2  1  0  0  0  0
 14 15  1  0  0  0  0
 14 13  1  0  0  0  0
 16 14  2  0  0  0  0
 17 15  2  0  0  0  0
 18 19  2  0  0  0  0
 18 16  1  0  0  0  0
 19 17  1  0  0  0  0
 20 22  2  0  0  0  0
 20 16  1  0  0  0  0
 21 20  1  0  0  0  0
 23 21  1  0  0  0  0
 24 21  1  0  0  0  0
M  END
>  <MODEL>
14

>  <REMARK>
 VINA RESULT:    -7.807      3.838      5.945
 INTER + INTRA:         -10.302
 INTER:                  -9.854
 INTRA:                  -0.448
 UNBOUND:                 0.243
 SMILES CC(C)(C)CC1=C[C@@H]1NC(=O)Sc1ccccc1C(N)=O
 SMILES IDX 9 1 10 2 11 3 8 5 6 6 7 7 5 8 2 9 1 10 3 11 4 12 12 13 13 14
 SMILES IDX 14 15 18 16 15 17 17 18 16 19 19 20 20 21 21 22
 H PARENT 9 4 20 23 20 24

>  <TORSDO>
F 6

$$$$
research/ai4chem/closed_loop/ipf_cycle1/docking_1vjy/cand_0009_dock.pdbqt
 OpenBabel03012623503D

 24 25  0  0  1  0  0  0  0  0999 V2000
   17.7950   68.0480    5.9150 N   0  0  0  0  0  0  0  0  0  0  0  0
   16.6590   67.7570    6.6170 C   0  0  0  0  0  0  0  0  0  0  0  0
   16.5970   67.1940    7.7010 O   0  0  0  0  0  0  0  0  0  0  0  0
   17.6680   68.4210    4.9720 H   0  0  0  0  0  0  0  0  0  0  0  0
   19.0870   67.6840    6.3570 C   0  0  2  0  0  3  0  0  0  0  0  0
   20.0420   68.7240    6.5790 C   0  0  1  0  0  3  0  0  0  0  0  0
   20.2100   68.0030    5.5130 C   0  0  0  0  0  2  0  0  0  0  0  0
   20.3470   69.8190    7.4770 C   0  0  0  0  0  2  0  0  0  0  0  0
   20.4710   69.4630    8.9830 C   0  0  0  0  0  0  0  0  0  0  0  0
   20.9470   70.7210    9.7380 C   0  0  0  0  0  1  0  0  0  0  0  0
   21.5020   68.3410    9.2050 C   0  0  0  0  0  1  0  0  0  0  0  0
   19.1160   69.0300    9.5700 C   0  0  0  0  0  1  0  0  0  0  0  0
   15.2240   68.2930    5.7660 S   0  0  0  0  0  0  0  0  0  0  0  0
   14.6250   66.7110    5.1830 C   0  0  0  0  0  0  0  0  0  0  0  0
   15.2950   66.1260    4.0970 C   0  0  0  0  0  3  0  0  0  0  0  0
   13.5690   66.0030    5.7860 C   0  0  0  0  0  0  0  0  0  0  0  0
   14.9170   64.8720    3.6130 C   0  0  0  0  0  3  0  0  0  0  0  0
   13.1920   64.7430    5.2920 C   0  0  0  0  0  3  0  0  0  0  0  0
   13.8670   64.1810    4.2100 C   0  0  0  0  0  3  0  0  0  0  0  0
   12.7950   66.5670    6.9200 C   0  0  0  0  0  0  0  0  0  0  0  0
   11.4340   66.5050    6.8110 N   0  0  0  0  0  0  0  0  0  0  0  0
   13.3390   67.0620    7.8990 O   0  0  0  0  0  0  0  0  0  0  0  0
   10.8980   66.7820    7.6240 H   0  0  0  0  0  0  0  0  0  0  0  0
   10.9760   65.9230    6.1220 H   0  0  0  0  0  0  0  0  0  0  0  0
  1  2  1  0  0  0  0
  2  3  2  0  0  0  0
  4  1  1  0  0  0  0
  5  1  1  6  0  0  0
  5  6  1  0  0  0  0
  6  8  1  6  0  0  0
  7  5  1  0  0  0  0
  7  6  1  0  0  0  0
  8  9  1  0  0  0  0
  9 11  1  0  0  0  0
  9 12  1  0  0  0  0
  9 10  1  0  0  0  0
 13  2  1  0  0  0  0
 14 13  1  0  0  0  0
 14 16  1  0  0  0  0
 15 14  2  0  0  0  0
 16 20  1  0  0  0  0
 17 15  1  0  0  0  0
 17 19  2  0  0  0  0
 18 16  2  0  0  0  0
 19 18  1  0  0  0  0
 20 22  2  0  0  0  0
 21 20  1  0  0  0  0
 21 23  1  0  0  0  0
 24 21  1  0  0  0  0
M  END
>  <MODEL>
15

>  <REMARK>
 VINA RESULT:    -7.779      2.497      3.339
 INTER + INTRA:         -10.265
 INTER:                  -9.785
 INTRA:                  -0.480
 UNBOUND:                 0.243
 SMILES CC(C)(C)CC1=C[C@@H]1NC(=O)Sc1ccccc1C(N)=O
 SMILES IDX 9 1 10 2 11 3 8 5 6 6 7 7 5 8 2 9 1 10 3 11 4 12 12 13 13 14
 SMILES IDX 14 15 18 16 15 17 17 18 16 19 19 20 20 21 21 22
 H PARENT 9 4 20 23 20 24

>  <TORSDO>
F 6

$$$$
research/ai4chem/closed_loop/ipf_cycle1/docking_1vjy/cand_0009_dock.pdbqt
 OpenBabel03012623503D

 24 25  0  0  1  0  0  0  0  0999 V2000
   16.8860   68.6980    5.8630 N   0  0  0  0  0  0  0  0  0  0  0  0
   18.0300   68.5820    6.6020 C   0  0  0  0  0  0  0  0  0  0  0  0
   18.8700   67.6980    6.5120 O   0  0  0  0  0  0  0  0  0  0  0  0
   16.2330   69.4340    6.1400 H   0  0  0  0  0  0  0  0  0  0  0  0
   16.4990   67.7480    4.8900 C   0  0  2  0  0  3  0  0  0  0  0  0
   16.7690   68.0390    3.5170 C   0  0  1  0  0  3  0  0  0  0  0  0
   15.5330   68.1430    3.8990 C   0  0  0  0  0  2  0  0  0  0  0  0
   17.8580   68.1530    2.5700 C   0  0  0  0  0  2  0  0  0  0  0  0
   18.4310   69.5780    2.3440 C   0  0  0  0  0  0  0  0  0  0  0  0
   19.4310   69.5150    1.1710 C   0  0  0  0  0  1  0  0  0  0  0  0
   19.1760   70.0810    3.5940 C   0  0  0  0  0  1  0  0  0  0  0  0
   17.3200   70.5780    1.9790 C   0  0  0  0  0  1  0  0  0  0  0  0
   18.1830   69.8930    7.7560 S   0  0  0  0  0  0  0  0  0  0  0  0
   19.5530   69.2680    8.7230 C   0  0  0  0  0  0  0  0  0  0  0  0
   19.2480   68.5910    9.9140 C   0  0  0  0  0  3  0  0  0  0  0  0
   20.8990   69.3660    8.3270 C   0  0  0  0  0  0  0  0  0  0  0  0
   20.2590   68.0350   10.7010 C   0  0  0  0  0  3  0  0  0  0  0  0
   21.9120   68.8060    9.1250 C   0  0  0  0  0  3  0  0  0  0  0  0
   21.5900   68.1420   10.3070 C   0  0  0  0  0  3  0  0  0  0  0  0
   21.3030   70.0890    7.0960 C   0  0  0  0  0  0  0  0  0  0  0  0
   21.5860   69.3130    6.0060 N   0  0  0  0  0  0  0  0  0  0  0  0
   21.3830   71.3100    7.0520 O   0  0  0  0  0  0  0  0  0  0  0  0
   21.7520   69.7970    5.1320 H   0  0  0  0  0  0  0  0  0  0  0  0
   21.3280   68.3360    5.9610 H   0  0  0  0  0  0  0  0  0  0  0  0
  1  4  1  0  0  0  0
  1  2  1  0  0  0  0
  2 13  1  0  0  0  0
  3  2  2  0  0  0  0
  5  1  1  1  0  0  0
  6  8  1  1  0  0  0
  6  7  1  0  0  0  0
  6  5  1  0  0  0  0
  7  5  1  0  0  0  0
  9  8  1  0  0  0  0
  9 11  1  0  0  0  0
 10  9  1  0  0  0  0
 12  9  1  0  0  0  0
 13 14  1  0  0  0  0
 14 15  1  0  0  0  0
 15 17  2  0  0  0  0
 16 14  2  0  0  0  0
 16 18  1  0  0  0  0
 18 19  2  0  0  0  0
 19 17  1  0  0  0  0
 20 16  1  0  0  0  0
 21 20  1  0  0  0  0
 22 20  2  0  0  0  0
 23 21  1  0  0  0  0
 24 21  1  0  0  0  0
M  END
>  <MODEL>
16

>  <REMARK>
 VINA RESULT:    -7.648      3.919      6.951
 INTER + INTRA:         -10.088
 INTER:                  -9.117
 INTRA:                  -0.970
 UNBOUND:                 0.243
 SMILES CC(C)(C)CC1=C[C@@H]1NC(=O)Sc1ccccc1C(N)=O
 SMILES IDX 9 1 10 2 11 3 8 5 6 6 7 7 5 8 2 9 1 10 3 11 4 12 12 13 13 14
 SMILES IDX 14 15 18 16 15 17 17 18 16 19 19 20 20 21 21 22
 H PARENT 9 4 20 23 20 24

>  <TORSDO>
F 6

$$$$
research/ai4chem/closed_loop/ipf_cycle1/docking_1vjy/cand_0009_dock.pdbqt
 OpenBabel03012623503D

 24 25  0  0  1  0  0  0  0  0999 V2000
   19.5810   68.4350    7.6350 N   0  0  0  0  0  0  0  0  0  0  0  0
   19.2500   69.4810    6.8190 C   0  0  0  0  0  0  0  0  0  0  0  0
   18.7390   70.5380    7.1610 O   0  0  0  0  0  0  0  0  0  0  0  0
   19.8960   67.5780    7.1750 H   0  0  0  0  0  0  0  0  0  0  0  0
   19.3260   68.4320    9.0250 C   0  0  2  0  0  3  0  0  0  0  0  0
   20.3180   68.9810    9.8940 C   0  0  1  0  0  3  0  0  0  0  0  0
   20.2140   67.6880    9.8790 C   0  0  0  0  0  2  0  0  0  0  0  0
   20.9170   70.2390   10.2880 C   0  0  0  0  0  2  0  0  0  0  0  0
   22.4450   70.3830   10.0490 C   0  0  0  0  0  0  0  0  0  0  0  0
   23.1740   69.4070   10.9940 C   0  0  0  0  0  1  0  0  0  0  0  0
   22.9220   71.8130   10.3610 C   0  0  0  0  0  1  0  0  0  0  0  0
   22.8210   70.0270    8.6000 C   0  0  0  0  0  1  0  0  0  0  0  0
   19.6470   69.1410    5.1460 S   0  0  0  0  0  0  0  0  0  0  0  0
   18.0200   68.6980    4.5470 C   0  0  0  0  0  0  0  0  0  0  0  0
   17.1660   68.0210    5.4330 C   0  0  0  0  0  3  0  0  0  0  0  0
   17.5360   69.0410    3.2720 C   0  0  0  0  0  0  0  0  0  0  0  0
   15.8650   67.6820    5.0560 C   0  0  0  0  0  3  0  0  0  0  0  0
   16.2260   68.6940    2.8980 C   0  0  0  0  0  3  0  0  0  0  0  0
   15.3950   68.0180    3.7900 C   0  0  0  0  0  3  0  0  0  0  0  0
   18.3850   69.7320    2.2710 C   0  0  0  0  0  0  0  0  0  0  0  0
   18.2810   71.0940    2.2280 N   0  0  0  0  0  0  0  0  0  0  0  0
   19.1380   69.1230    1.5210 O   0  0  0  0  0  0  0  0  0  0  0  0
   18.9360   71.5840    1.6310 H   0  0  0  0  0  0  0  0  0  0  0  0
   17.8330   71.6220    2.9660 H   0  0  0  0  0  0  0  0  0  0  0  0
  2  3  2  0  0  0  0
  2  1  1  0  0  0  0
  4  1  1  0  0  0  0
  5  1  1  6  0  0  0
  5  7  1  0  0  0  0
  5  6  1  0  0  0  0
  6  8  1  6  0  0  0
  7  6  1  0  0  0  0
  9  8  1  0  0  0  0
  9 11  1  0  0  0  0
  9 10  1  0  0  0  0
 12  9  1  0  0  0  0
 13  2  1  0  0  0  0
 14 13  1  0  0  0  0
 14 15  1  0  0  0  0
 16 14  2  0  0  0  0
 17 15  2  0  0  0  0
 18 16  1  0  0  0  0
 18 19  2  0  0  0  0
 19 17  1  0  0  0  0
 20 16  1  0  0  0  0
 21 20  1  0  0  0  0
 21 24  1  0  0  0  0
 22 20  2  0  0  0  0
 23 21  1  0  0  0  0
M  END
>  <MODEL>
17

>  <REMARK>
 VINA RESULT:    -7.616      4.231      6.518
 INTER + INTRA:         -10.045
 INTER:                  -9.408
 INTRA:                  -0.637
 UNBOUND:                 0.243
 SMILES CC(C)(C)CC1=C[C@@H]1NC(=O)Sc1ccccc1C(N)=O
 SMILES IDX 9 1 10 2 11 3 8 5 6 6 7 7 5 8 2 9 1 10 3 11 4 12 12 13 13 14
 SMILES IDX 14 15 18 16 15 17 17 18 16 19 19 20 20 21 21 22
 H PARENT 9 4 20 23 20 24

>  <TORSDO>
F 6

$$$$
research/ai4chem/closed_loop/ipf_cycle1/docking_1vjy/cand_0009_dock.pdbqt
 OpenBabel03012623503D

 24 25  0  0  1  0  0  0  0  0999 V2000
   20.7840   68.9750    5.0510 N   0  0  0  0  0  0  0  0  0  0  0  0
   20.0420   69.2450    6.1670 C   0  0  0  0  0  0  0  0  0  0  0  0
   19.4640   70.2920    6.4220 O   0  0  0  0  0  0  0  0  0  0  0  0
   21.2940   68.0900    5.0420 H   0  0  0  0  0  0  0  0  0  0  0  0
   21.0160   69.9280    4.0320 C   0  0  2  0  0  3  0  0  0  0  0  0
   20.0780   70.0070    2.9560 C   0  0  1  0  0  3  0  0  0  0  0  0
   21.2210   69.4520    2.6880 C   0  0  0  0  0  2  0  0  0  0  0  0
   18.7250   70.4240    2.6530 C   0  0  0  0  0  2  0  0  0  0  0  0
   17.6970   69.2920    2.3840 C   0  0  0  0  0  0  0  0  0  0  0  0
   18.2530   68.3920    1.2620 C   0  0  0  0  0  1  0  0  0  0  0  0
   16.3460   69.8690    1.9230 C   0  0  0  0  0  1  0  0  0  0  0  0
   17.4780   68.4250    3.6360 C   0  0  0  0  0  1  0  0  0  0  0  0
   19.9990   67.8730    7.2550 S   0  0  0  0  0  0  0  0  0  0  0  0
   20.5670   68.6730    8.7520 C   0  0  0  0  0  0  0  0  0  0  0  0
   21.8770   69.1780    8.7580 C   0  0  0  0  0  3  0  0  0  0  0  0
   19.7600   68.8720    9.8870 C   0  0  0  0  0  0  0  0  0  0  0  0
   22.3780   69.8550    9.8720 C   0  0  0  0  0  3  0  0  0  0  0  0
   20.2720   69.5530   11.0050 C   0  0  0  0  0  3  0  0  0  0  0  0
   21.5760   70.0430   10.9940 C   0  0  0  0  0  3  0  0  0  0  0  0
   18.3760   68.3440    9.9670 C   0  0  0  0  0  0  0  0  0  0  0  0
   17.3720   69.2620    9.8310 N   0  0  0  0  0  0  0  0  0  0  0  0
   18.1390   67.1560   10.1470 O   0  0  0  0  0  0  0  0  0  0  0  0
   16.4280   68.9000    9.7710 H   0  0  0  0  0  0  0  0  0  0  0  0
   17.5410   70.1950    9.4790 H   0  0  0  0  0  0  0  0  0  0  0  0
  1  2  1  0  0  0  0
  2  3  2  0  0  0  0
  2 13  1  0  0  0  0
  4  1  1  0  0  0  0
  5  1  1  1  0  0  0
  6  8  1  1  0  0  0
  6  5  1  0  0  0  0
  7  6  1  0  0  0  0
  7  5  1  0  0  0  0
  9  8  1  0  0  0  0
  9 12  1  0  0  0  0
 10  9  1  0  0  0  0
 11  9  1  0  0  0  0
 13 14  1  0  0  0  0
 14 15  2  0  0  0  0
 14 16  1  0  0  0  0
 15 17  1  0  0  0  0
 16 20  1  0  0  0  0
 16 18  2  0  0  0  0
 17 19  2  0  0  0  0
 19 18  1  0  0  0  0
 20 22  2  0  0  0  0
 21 20  1  0  0  0  0
 23 21  1  0  0  0  0
 24 21  1  0  0  0  0
M  END
>  <MODEL>
18

>  <REMARK>
 VINA RESULT:    -7.614      4.385      6.950
 INTER + INTRA:         -10.041
 INTER:                  -9.223
 INTRA:                  -0.819
 UNBOUND:                 0.243
 SMILES CC(C)(C)CC1=C[C@@H]1NC(=O)Sc1ccccc1C(N)=O
 SMILES IDX 9 1 10 2 11 3 8 5 6 6 7 7 5 8 2 9 1 10 3 11 4 12 12 13 13 14
 SMILES IDX 14 15 18 16 15 17 17 18 16 19 19 20 20 21 21 22
 H PARENT 9 4 20 23 20 24

>  <TORSDO>
F 6

$$$$
research/ai4chem/closed_loop/ipf_cycle1/docking_1vjy/cand_0009_dock.pdbqt
 OpenBabel03012623503D

 24 25  0  0  1  0  0  0  0  0999 V2000
   21.7400   69.5430    5.6240 N   0  0  0  0  0  0  0  0  0  0  0  0
   21.7920   70.1500    6.8480 C   0  0  0  0  0  0  0  0  0  0  0  0
   21.3230   71.2410    7.1400 O   0  0  0  0  0  0  0  0  0  0  0  0
   22.2790   68.6810    5.5170 H   0  0  0  0  0  0  0  0  0  0  0  0
   21.1480   70.1450    4.4910 C   0  0  2  0  0  3  0  0  0  0  0  0
   20.1270   69.4230    3.7990 C   0  0  1  0  0  3  0  0  0  0  0  0
   21.2860   69.4850    3.2180 C   0  0  0  0  0  2  0  0  0  0  0  0
   18.7550   68.9790    3.9340 C   0  0  0  0  0  2  0  0  0  0  0  0
   17.8380   69.1820    2.6970 C   0  0  0  0  0  0  0  0  0  0  0  0
   16.4260   68.6800    3.0580 C   0  0  0  0  0  1  0  0  0  0  0  0
   18.3500   68.3750    1.4900 C   0  0  0  0  0  1  0  0  0  0  0  0
   17.7400   70.6680    2.3100 C   0  0  0  0  0  1  0  0  0  0  0  0
   22.6430   69.1620    8.0180 S   0  0  0  0  0  0  0  0  0  0  0  0
   21.3430   68.9680    9.2320 C   0  0  0  0  0  0  0  0  0  0  0  0
   20.3770   67.9780    8.9930 C   0  0  0  0  0  3  0  0  0  0  0  0
   21.2720   69.7060   10.4280 C   0  0  0  0  0  0  0  0  0  0  0  0
   19.3560   67.7350    9.9140 C   0  0  0  0  0  3  0  0  0  0  0  0
   20.2410   69.4570   11.3500 C   0  0  0  0  0  3  0  0  0  0  0  0
   19.2880   68.4740   11.0920 C   0  0  0  0  0  3  0  0  0  0  0  0
   22.2400   70.7860   10.7400 C   0  0  0  0  0  0  0  0  0  0  0  0
   22.0540   71.9710   10.0830 N   0  0  0  0  0  0  0  0  0  0  0  0
   23.1560   70.6320   11.5380 O   0  0  0  0  0  0  0  0  0  0  0  0
   22.6360   72.7480   10.3700 H   0  0  0  0  0  0  0  0  0  0  0  0
   21.1970   72.1830    9.5890 H   0  0  0  0  0  0  0  0  0  0  0  0
  1  2  1  0  0  0  0
  2  3  2  0  0  0  0
  2 13  1  0  0  0  0
  4  1  1  0  0  0  0
  5  1  1  1  0  0  0
  6  8  1  1  0  0  0
  6  5  1  0  0  0  0
  7  6  1  0  0  0  0
  7  5  1  0  0  0  0
  9 10  1  0  0  0  0
  9  8  1  0  0  0  0
 11  9  1  0  0  0  0
 12  9  1  0  0  0  0
 13 14  1  0  0  0  0
 14 16  1  0  0  0  0
 15 14  2  0  0  0  0
 15 17  1  0  0  0  0
 16 20  1  0  0  0  0
 16 18  2  0  0  0  0
 17 19  2  0  0  0  0
 19 18  1  0  0  0  0
 20 22  2  0  0  0  0
 21 23  1  0  0  0  0
 21 20  1  0  0  0  0
 24 21  1  0  0  0  0
M  END
>  <MODEL>
19

>  <REMARK>
 VINA RESULT:    -7.583      5.348      7.892
 INTER + INTRA:          -9.999
 INTER:                  -9.047
 INTRA:                  -0.952
 UNBOUND:                 0.243
 SMILES CC(C)(C)CC1=C[C@@H]1NC(=O)Sc1ccccc1C(N)=O
 SMILES IDX 9 1 10 2 11 3 8 5 6 6 7 7 5 8 2 9 1 10 3 11 4 12 12 13 13 14
 SMILES IDX 14 15 18 16 15 17 17 18 16 19 19 20 20 21 21 22
 H PARENT 9 4 20 23 20 24

>  <TORSDO>
F 6

$$$$
