research/ai4chem/closed_loop/ipf_cycle1/docking_1vjy/cand_0013_dock.pdbqt
 OpenBabel03012623503D

 19 19  0  0  0  0  0  0  0  0999 V2000
   15.9130   67.5590    5.5240 C   0  0  0  0  0  2  0  0  0  0  0  0
   17.2690   68.0300    5.0810 C   0  0  0  0  0  0  0  0  0  0  0  0
   17.5170   68.5540    3.8710 C   0  0  0  0  0  3  0  0  0  0  0  0
   18.2870   67.9360    5.9720 F   0  0  0  0  0  0  0  0  0  0  0  0
   18.8220   69.0160    3.4530 C   0  0  0  0  0  3  0  0  0  0  0  0
   19.0960   69.3800    2.1900 C   0  0  0  0  0  3  0  0  0  0  0  0
   20.4150   69.8720    1.6540 C   0  0  0  0  0  2  0  0  0  0  0  0
   21.6100   69.8010    2.5950 C   0  0  0  0  0  1  0  0  0  0  0  0
   14.9380   67.3420    4.3560 C   0  0  0  0  0  2  0  0  0  0  0  0
   14.8880   65.9930    3.7850 N   0  0  0  0  0  0  0  0  0  0  0  0
   15.8090   65.7630    3.4070 H   0  0  0  0  0  0  0  0  0  0  0  0
   14.5080   64.9330    4.7200 C   0  0  0  0  0  2  0  0  0  0  0  0
   13.0250   64.6780    4.7910 C   0  0  0  0  0  0  0  0  0  0  0  0
   12.2670   65.1180    5.8880 C   0  0  0  0  0  3  0  0  0  0  0  0
   12.3690   64.0000    3.7590 C   0  0  0  0  0  0  0  0  0  0  0  0
   10.8900   64.8850    5.9380 C   0  0  0  0  0  3  0  0  0  0  0  0
   10.9970   63.7640    3.8050 C   0  0  0  0  0  3  0  0  0  0  0  0
   10.2550   64.2090    4.8970 C   0  0  0  0  0  3  0  0  0  0  0  0
   13.0620   63.5440    2.7050 F   0  0  0  0  0  0  0  0  0  0  0  0
  2  1  1  0  0  0  0
  2  4  1  0  0  0  0
  3  2  2  0  0  0  0
  5  3  1  0  0  0  0
  6  5  2  0  0  0  0
  7  6  1  0  0  0  0
  7  8  1  0  0  0  0
  9  1  1  0  0  0  0
 10  9  1  0  0  0  0
 10 12  1  0  0  0  0
 11 10  1  0  0  0  0
 12 13  1  0  0  0  0
 13 14  1  0  0  0  0
 14 16  2  0  0  0  0
 15 17  1  0  0  0  0
 15 13  2  0  0  0  0
 17 18  2  0  0  0  0
 18 16  1  0  0  0  0
 19 15  1  0  0  0  0
M  END
>  <MODEL>
1

>  <REMARK>
 VINA RESULT:    -7.921      0.000      0.000
 INTER + INTRA:         -11.690
 INTER:                 -11.163
 INTRA:                  -0.527
 UNBOUND:                -0.527
 SMILES CC/C=C/C=C(\F)CCNCc1ccccc1F
 SMILES IDX 8 1 6 2 5 3 7 4 4 5 3 6 2 7 1 8 9 9 10 10 11 12 12 13 13 14
 SMILES IDX 17 15 14 16 16 17 15 18 18 19
 H PARENT 10 11

>  <TORSDO>
F 7

$$$$
research/ai4chem/closed_loop/ipf_cycle1/docking_1vjy/cand_0013_dock.pdbqt
 OpenBabel03012623503D

 19 19  0  0  0  0  0  0  0  0999 V2000
   17.1730   68.0750    7.4140 C   0  0  0  0  0  2  0  0  0  0  0  0
   17.6830   68.0520    6.0010 C   0  0  0  0  0  0  0  0  0  0  0  0
   16.9430   68.4010    4.9370 C   0  0  0  0  0  3  0  0  0  0  0  0
   18.9710   67.6800    5.8050 F   0  0  0  0  0  0  0  0  0  0  0  0
   17.4420   68.3880    3.5790 C   0  0  0  0  0  3  0  0  0  0  0  0
   18.1140   69.4180    3.0410 C   0  0  0  0  0  3  0  0  0  0  0  0
   18.6720   69.5050    1.6440 C   0  0  0  0  0  2  0  0  0  0  0  0
   20.1610   69.7970    1.5160 C   0  0  0  0  0  1  0  0  0  0  0  0
   15.6420   68.1790    7.5030 C   0  0  0  0  0  2  0  0  0  0  0  0
   14.8990   66.9160    7.5200 N   0  0  0  0  0  0  0  0  0  0  0  0
   14.6910   66.6710    8.4900 H   0  0  0  0  0  0  0  0  0  0  0  0
   13.6370   66.9250    6.7770 C   0  0  0  0  0  2  0  0  0  0  0  0
   13.5550   65.8830    5.6930 C   0  0  0  0  0  0  0  0  0  0  0  0
   14.6390   65.6490    4.8320 C   0  0  0  0  0  3  0  0  0  0  0  0
   12.3950   65.1220    5.5220 C   0  0  0  0  0  0  0  0  0  0  0  0
   14.5550   64.6720    3.8350 C   0  0  0  0  0  3  0  0  0  0  0  0
   12.3070   64.1490    4.5300 C   0  0  0  0  0  3  0  0  0  0  0  0
   13.3900   63.9220    3.6840 C   0  0  0  0  0  3  0  0  0  0  0  0
   11.3300   65.3310    6.3100 F   0  0  0  0  0  0  0  0  0  0  0  0
  1  9  1  0  0  0  0
  2  1  1  0  0  0  0
  3  2  2  0  0  0  0
  4  2  1  0  0  0  0
  5  3  1  0  0  0  0
  6  5  2  0  0  0  0
  7  6  1  0  0  0  0
  8  7  1  0  0  0  0
  9 10  1  0  0  0  0
 10 11  1  0  0  0  0
 12 10  1  0  0  0  0
 13 12  1  0  0  0  0
 14 13  2  0  0  0  0
 15 13  1  0  0  0  0
 15 19  1  0  0  0  0
 16 14  1  0  0  0  0
 17 15  2  0  0  0  0
 18 16  2  0  0  0  0
 18 17  1  0  0  0  0
M  END
>  <MODEL>
2

>  <REMARK>
 VINA RESULT:    -7.817      1.804      2.567
 INTER + INTRA:         -11.543
 INTER:                 -10.729
 INTRA:                  -0.814
 UNBOUND:                -0.527
 SMILES CC/C=C/C=C(\F)CCNCc1ccccc1F
 SMILES IDX 8 1 6 2 5 3 7 4 4 5 3 6 2 7 1 8 9 9 10 10 11 12 12 13 13 14
 SMILES IDX 17 15 14 16 16 17 15 18 18 19
 H PARENT 10 11

>  <TORSDO>
F 7

$$$$
research/ai4chem/closed_loop/ipf_cycle1/docking_1vjy/cand_0013_dock.pdbqt
 OpenBabel03012623503D

 19 19  0  0  0  0  0  0  0  0999 V2000
   15.7790   68.4650    3.3980 C   0  0  0  0  0  2  0  0  0  0  0  0
   17.1540   68.5540    2.7980 C   0  0  0  0  0  0  0  0  0  0  0  0
   17.5170   69.4860    1.9020 C   0  0  0  0  0  3  0  0  0  0  0  0
   18.0770   67.6520    3.2110 F   0  0  0  0  0  0  0  0  0  0  0  0
   18.8450   69.5740    1.3360 C   0  0  0  0  0  3  0  0  0  0  0  0
   19.9160   69.9590    2.0480 C   0  0  0  0  0  3  0  0  0  0  0  0
   21.3340   70.0840    1.5560 C   0  0  0  0  0  2  0  0  0  0  0  0
   22.4380   69.8920    2.5870 C   0  0  0  0  0  1  0  0  0  0  0  0
   15.5700   67.1990    4.2440 C   0  0  0  0  0  2  0  0  0  0  0  0
   14.8590   66.0900    3.6000 N   0  0  0  0  0  0  0  0  0  0  0  0
   15.4270   65.7420    2.8260 H   0  0  0  0  0  0  0  0  0  0  0  0
   14.5470   64.9590    4.4740 C   0  0  0  0  0  2  0  0  0  0  0  0
   13.0730   64.7100    4.6570 C   0  0  0  0  0  0  0  0  0  0  0  0
   12.3590   63.9020    3.7570 C   0  0  0  0  0  3  0  0  0  0  0  0
   12.3820   65.2780    5.7320 C   0  0  0  0  0  0  0  0  0  0  0  0
   10.9930   63.6700    3.9420 C   0  0  0  0  0  3  0  0  0  0  0  0
   11.0210   65.0500    5.9190 C   0  0  0  0  0  3  0  0  0  0  0  0
   10.3240   64.2430    5.0230 C   0  0  0  0  0  3  0  0  0  0  0  0
   13.0230   66.0740    6.6000 F   0  0  0  0  0  0  0  0  0  0  0  0
  1  9  1  0  0  0  0
  2  4  1  0  0  0  0
  2  1  1  0  0  0  0
  3  2  2  0  0  0  0
  5  3  1  0  0  0  0
  5  6  2  0  0  0  0
  7  6  1  0  0  0  0
  7  8  1  0  0  0  0
 10  9  1  0  0  0  0
 10 12  1  0  0  0  0
 11 10  1  0  0  0  0
 12 13  1  0  0  0  0
 13 15  1  0  0  0  0
 14 16  1  0  0  0  0
 14 13  2  0  0  0  0
 15 17  2  0  0  0  0
 15 19  1  0  0  0  0
 16 18  2  0  0  0  0
 18 17  1  0  0  0  0
M  END
>  <MODEL>
3

>  <REMARK>
 VINA RESULT:    -7.739      1.543      2.056
 INTER + INTRA:         -11.433
 INTER:                 -11.027
 INTRA:                  -0.406
 UNBOUND:                -0.527
 SMILES CC/C=C/C=C(\F)CCNCc1ccccc1F
 SMILES IDX 8 1 6 2 5 3 7 4 4 5 3 6 2 7 1 8 9 9 10 10 11 12 12 13 13 14
 SMILES IDX 17 15 14 16 16 17 15 18 18 19
 H PARENT 10 11

>  <TORSDO>
F 7

$$$$
research/ai4chem/closed_loop/ipf_cycle1/docking_1vjy/cand_0013_dock.pdbqt
 OpenBabel03012623503D

 19 19  0  0  0  0  0  0  0  0999 V2000
   15.7190   67.1550    7.1550 C   0  0  0  0  0  2  0  0  0  0  0  0
   14.5720   66.6890    6.3020 C   0  0  0  0  0  0  0  0  0  0  0  0
   14.6960   65.7910    5.3130 C   0  0  0  0  0  3  0  0  0  0  0  0
   13.3440   67.1950    6.5740 F   0  0  0  0  0  0  0  0  0  0  0  0
   13.5870   65.3390    4.5020 C   0  0  0  0  0  3  0  0  0  0  0  0
   12.7220   64.3980    4.9120 C   0  0  0  0  0  3  0  0  0  0  0  0
   11.5400   63.8580    4.1490 C   0  0  0  0  0  2  0  0  0  0  0  0
   10.1840   64.4800    4.4510 C   0  0  0  0  0  1  0  0  0  0  0  0
   15.9780   68.6660    7.0460 C   0  0  0  0  0  2  0  0  0  0  0  0
   17.2630   69.0700    6.4670 N   0  0  0  0  0  0  0  0  0  0  0  0
   17.9270   69.2330    7.2250 H   0  0  0  0  0  0  0  0  0  0  0  0
   17.8610   68.1060    5.5430 C   0  0  0  0  0  2  0  0  0  0  0  0
   18.0760   68.6390    4.1510 C   0  0  0  0  0  0  0  0  0  0  0  0
   19.3480   69.0550    3.7240 C   0  0  0  0  0  3  0  0  0  0  0  0
   17.0110   68.7280    3.2490 C   0  0  0  0  0  0  0  0  0  0  0  0
   19.5370   69.5390    2.4260 C   0  0  0  0  0  3  0  0  0  0  0  0
   17.1950   69.2100    1.9560 C   0  0  0  0  0  3  0  0  0  0  0  0
   18.4620   69.6160    1.5420 C   0  0  0  0  0  3  0  0  0  0  0  0
   15.7770   68.3620    3.6260 F   0  0  0  0  0  0  0  0  0  0  0  0
  2  4  1  0  0  0  0
  2  1  1  0  0  0  0
  3  2  2  0  0  0  0
  5  6  2  0  0  0  0
  5  3  1  0  0  0  0
  7  8  1  0  0  0  0
  7  6  1  0  0  0  0
  9  1  1  0  0  0  0
 10  9  1  0  0  0  0
 10 11  1  0  0  0  0
 12 10  1  0  0  0  0
 13 12  1  0  0  0  0
 14 13  1  0  0  0  0
 15 19  1  0  0  0  0
 15 13  2  0  0  0  0
 16 14  2  0  0  0  0
 17 15  1  0  0  0  0
 18 17  2  0  0  0  0
 18 16  1  0  0  0  0
M  END
>  <MODEL>
4

>  <REMARK>
 VINA RESULT:    -7.678      2.157      7.397
 INTER + INTRA:         -11.347
 INTER:                 -10.477
 INTRA:                  -0.870
 UNBOUND:                -0.527
 SMILES CC/C=C/C=C(\F)CCNCc1ccccc1F
 SMILES IDX 8 1 6 2 5 3 7 4 4 5 3 6 2 7 1 8 9 9 10 10 11 12 12 13 13 14
 SMILES IDX 17 15 14 16 16 17 15 18 18 19
 H PARENT 10 11

>  <TORSDO>
F 7

$$$$
research/ai4chem/closed_loop/ipf_cycle1/docking_1vjy/cand_0013_dock.pdbqt
 OpenBabel03012623503D

 19 19  0  0  0  0  0  0  0  0999 V2000
   15.6920   67.1140    7.2610 C   0  0  0  0  0  2  0  0  0  0  0  0
   14.5530   66.6740    6.3830 C   0  0  0  0  0  0  0  0  0  0  0  0
   14.6930   65.8310    5.3490 C   0  0  0  0  0  3  0  0  0  0  0  0
   13.3170   67.1450    6.6790 F   0  0  0  0  0  0  0  0  0  0  0  0
   13.5920   65.4020    4.5140 C   0  0  0  0  0  3  0  0  0  0  0  0
   12.7330   64.4390    4.8810 C   0  0  0  0  0  3  0  0  0  0  0  0
   11.5600   63.9200    4.0910 C   0  0  0  0  0  2  0  0  0  0  0  0
   10.1960   64.5140    4.4140 C   0  0  0  0  0  1  0  0  0  0  0  0
   15.9770   68.6210    7.1680 C   0  0  0  0  0  2  0  0  0  0  0  0
   17.2600   69.0100    6.5760 N   0  0  0  0  0  0  0  0  0  0  0  0
   17.9440   69.1320    7.3250 H   0  0  0  0  0  0  0  0  0  0  0  0
   17.8140   68.0610    5.6090 C   0  0  0  0  0  2  0  0  0  0  0  0
   17.6720   68.4920    4.1730 C   0  0  0  0  0  0  0  0  0  0  0  0
   16.4100   68.5670    3.5620 C   0  0  0  0  0  3  0  0  0  0  0  0
   18.7970   68.8340    3.4170 C   0  0  0  0  0  0  0  0  0  0  0  0
   16.2890   68.9780    2.2310 C   0  0  0  0  0  3  0  0  0  0  0  0
   18.6820   69.2440    2.0910 C   0  0  0  0  0  3  0  0  0  0  0  0
   17.4240   69.3170    1.4960 C   0  0  0  0  0  3  0  0  0  0  0  0
   20.0220   68.7550    3.9580 F   0  0  0  0  0  0  0  0  0  0  0  0
  2  4  1  0  0  0  0
  2  1  1  0  0  0  0
  3  2  2  0  0  0  0
  5  6  2  0  0  0  0
  5  3  1  0  0  0  0
  7  8  1  0  0  0  0
  7  6  1  0  0  0  0
  9  1  1  0  0  0  0
 10  9  1  0  0  0  0
 10 11  1  0  0  0  0
 12 10  1  0  0  0  0
 13 12  1  0  0  0  0
 14 13  1  0  0  0  0
 15 19  1  0  0  0  0
 15 13  2  0  0  0  0
 16 14  2  0  0  0  0
 17 15  1  0  0  0  0
 18 17  2  0  0  0  0
 18 16  1  0  0  0  0
M  END
>  <MODEL>
5

>  <REMARK>
 VINA RESULT:    -7.599      2.195      7.307
 INTER + INTRA:         -11.236
 INTER:                 -10.384
 INTRA:                  -0.852
 UNBOUND:                -0.527
 SMILES CC/C=C/C=C(\F)CCNCc1ccccc1F
 SMILES IDX 8 1 6 2 5 3 7 4 4 5 3 6 2 7 1 8 9 9 10 10 11 12 12 13 13 14
 SMILES IDX 17 15 14 16 16 17 15 18 18 19
 H PARENT 10 11

>  <TORSDO>
F 7

$$$$
research/ai4chem/closed_loop/ipf_cycle1/docking_1vjy/cand_0013_dock.pdbqt
 OpenBabel03012623503D

 19 19  0  0  0  0  0  0  0  0999 V2000
   16.2790   68.5840    6.4290 C   0  0  0  0  0  2  0  0  0  0  0  0
   17.2640   68.4420    5.3020 C   0  0  0  0  0  0  0  0  0  0  0  0
   16.9780   68.7280    4.0220 C   0  0  0  0  0  3  0  0  0  0  0  0
   18.5150   68.0240    5.6130 F   0  0  0  0  0  0  0  0  0  0  0  0
   17.9320   68.6000    2.9430 C   0  0  0  0  0  3  0  0  0  0  0  0
   18.7930   69.5750    2.6130 C   0  0  0  0  0  3  0  0  0  0  0  0
   19.8210   69.5440    1.5130 C   0  0  0  0  0  2  0  0  0  0  0  0
   21.2460   69.9240    1.8910 C   0  0  0  0  0  1  0  0  0  0  0  0
   16.2090   67.3400    7.3290 C   0  0  0  0  0  2  0  0  0  0  0  0
   14.8700   66.8580    7.6780 N   0  0  0  0  0  0  0  0  0  0  0  0
   14.6180   67.2270    8.5970 H   0  0  0  0  0  0  0  0  0  0  0  0
   13.8100   67.2270    6.7380 C   0  0  0  0  0  2  0  0  0  0  0  0
   13.2240   66.0620    5.9850 C   0  0  0  0  0  0  0  0  0  0  0  0
   11.9650   65.5400    6.3260 C   0  0  0  0  0  3  0  0  0  0  0  0
   13.9200   65.4760    4.9230 C   0  0  0  0  0  0  0  0  0  0  0  0
   11.4270   64.4640    5.6140 C   0  0  0  0  0  3  0  0  0  0  0  0
   13.3870   64.4050    4.2110 C   0  0  0  0  0  3  0  0  0  0  0  0
   12.1360   63.8980    4.5560 C   0  0  0  0  0  3  0  0  0  0  0  0
   15.1340   65.9320    4.5810 F   0  0  0  0  0  0  0  0  0  0  0  0
  1  9  1  0  0  0  0
  2  4  1  0  0  0  0
  2  1  1  0  0  0  0
  3  2  2  0  0  0  0
  5  3  1  0  0  0  0
  6  5  2  0  0  0  0
  7  8  1  0  0  0  0
  7  6  1  0  0  0  0
  9 10  1  0  0  0  0
 10 11  1  0  0  0  0
 12 10  1  0  0  0  0
 13 14  1  0  0  0  0
 13 12  1  0  0  0  0
 15 13  2  0  0  0  0
 16 14  2  0  0  0  0
 17 18  2  0  0  0  0
 17 15  1  0  0  0  0
 18 16  1  0  0  0  0
 19 15  1  0  0  0  0
M  END
>  <MODEL>
6

>  <REMARK>
 VINA RESULT:    -7.587      1.647      2.048
 INTER + INTRA:         -11.219
 INTER:                 -10.408
 INTRA:                  -0.811
 UNBOUND:                -0.527
 SMILES CC/C=C/C=C(\F)CCNCc1ccccc1F
 SMILES IDX 8 1 6 2 5 3 7 4 4 5 3 6 2 7 1 8 9 9 10 10 11 12 12 13 13 14
 SMILES IDX 17 15 14 16 16 17 15 18 18 19
 H PARENT 10 11

>  <TORSDO>
F 7

$$$$
research/ai4chem/closed_loop/ipf_cycle1/docking_1vjy/cand_0013_dock.pdbqt
 OpenBabel03012623503D

 19 19  0  0  0  0  0  0  0  0999 V2000
   15.5030   68.1360    3.1030 C   0  0  0  0  0  2  0  0  0  0  0  0
   16.5290   69.0600    2.5100 C   0  0  0  0  0  0  0  0  0  0  0  0
   17.8410   68.9930    2.7860 C   0  0  0  0  0  3  0  0  0  0  0  0
   16.0960   69.9950    1.6290 F   0  0  0  0  0  0  0  0  0  0  0  0
   18.8260   69.8770    2.2050 C   0  0  0  0  0  3  0  0  0  0  0  0
   20.0860   69.4940    1.9450 C   0  0  0  0  0  3  0  0  0  0  0  0
   21.1840   70.3330    1.3450 C   0  0  0  0  0  2  0  0  0  0  0  0
   22.5340   69.6590    1.1460 C   0  0  0  0  0  1  0  0  0  0  0  0
   15.5480   68.0900    4.6390 C   0  0  0  0  0  2  0  0  0  0  0  0
   15.7040   66.7670    5.2500 N   0  0  0  0  0  0  0  0  0  0  0  0
   16.5370   66.7750    5.8410 H   0  0  0  0  0  0  0  0  0  0  0  0
   14.5760   66.3210    6.0690 C   0  0  0  0  0  2  0  0  0  0  0  0
   13.5880   65.4540    5.3340 C   0  0  0  0  0  0  0  0  0  0  0  0
   13.9810   64.6910    4.2220 C   0  0  0  0  0  3  0  0  0  0  0  0
   12.2540   65.3850    5.7470 C   0  0  0  0  0  0  0  0  0  0  0  0
   13.0580   63.8820    3.5540 C   0  0  0  0  0  3  0  0  0  0  0  0
   11.3300   64.5810    5.0840 C   0  0  0  0  0  3  0  0  0  0  0  0
   11.7330   63.8260    3.9850 C   0  0  0  0  0  3  0  0  0  0  0  0
   11.8330   66.1150    6.7910 F   0  0  0  0  0  0  0  0  0  0  0  0
  1  9  1  0  0  0  0
  2  3  2  0  0  0  0
  2  1  1  0  0  0  0
  4  2  1  0  0  0  0
  5  3  1  0  0  0  0
  6  5  2  0  0  0  0
  7  6  1  0  0  0  0
  8  7  1  0  0  0  0
  9 10  1  0  0  0  0
 10 11  1  0  0  0  0
 10 12  1  0  0  0  0
 13 15  1  0  0  0  0
 13 12  1  0  0  0  0
 14 13  2  0  0  0  0
 15 19  1  0  0  0  0
 16 18  2  0  0  0  0
 16 14  1  0  0  0  0
 17 15  2  0  0  0  0
 18 17  1  0  0  0  0
M  END
>  <MODEL>
7

>  <REMARK>
 VINA RESULT:    -7.524      2.058      2.518
 INTER + INTRA:         -11.131
 INTER:                 -10.624
 INTRA:                  -0.507
 UNBOUND:                -0.527
 SMILES CC/C=C/C=C(\F)CCNCc1ccccc1F
 SMILES IDX 8 1 6 2 5 3 7 4 4 5 3 6 2 7 1 8 9 9 10 10 11 12 12 13 13 14
 SMILES IDX 17 15 14 16 16 17 15 18 18 19
 H PARENT 10 11

>  <TORSDO>
F 7

$$$$
research/ai4chem/closed_loop/ipf_cycle1/docking_1vjy/cand_0013_dock.pdbqt
 OpenBabel03012623503D

 19 19  0  0  0  0  0  0  0  0999 V2000
   16.0630   68.9710    6.9230 C   0  0  0  0  0  2  0  0  0  0  0  0
   15.2740   68.0460    6.0390 C   0  0  0  0  0  0  0  0  0  0  0  0
   15.0470   66.7540    6.3260 C   0  0  0  0  0  3  0  0  0  0  0  0
   14.7460   68.5640    4.9040 F   0  0  0  0  0  0  0  0  0  0  0  0
   14.2780   65.8720    5.4770 C   0  0  0  0  0  3  0  0  0  0  0  0
   14.8210   65.1860    4.4580 C   0  0  0  0  0  3  0  0  0  0  0  0
   14.1120   64.2460    3.5190 C   0  0  0  0  0  2  0  0  0  0  0  0
   12.6840   63.8600    3.8790 C   0  0  0  0  0  1  0  0  0  0  0  0
   17.4540   68.4230    7.2810 C   0  0  0  0  0  2  0  0  0  0  0  0
   18.5870   68.9660    6.5270 N   0  0  0  0  0  0  0  0  0  0  0  0
   19.3420   69.1810    7.1800 H   0  0  0  0  0  0  0  0  0  0  0  0
   19.1250   68.0850    5.4890 C   0  0  0  0  0  2  0  0  0  0  0  0
   18.9240   68.5940    4.0860 C   0  0  0  0  0  0  0  0  0  0  0  0
   17.6770   68.4850    3.4490 C   0  0  0  0  0  3  0  0  0  0  0  0
   19.9760   69.1910    3.3870 C   0  0  0  0  0  0  0  0  0  0  0  0
   17.4990   68.9690    2.1500 C   0  0  0  0  0  3  0  0  0  0  0  0
   19.8040   69.6740    2.0920 C   0  0  0  0  0  3  0  0  0  0  0  0
   18.5610   69.5650    1.4720 C   0  0  0  0  0  3  0  0  0  0  0  0
   21.1890   69.2930    3.9510 F   0  0  0  0  0  0  0  0  0  0  0  0
  1  9  1  0  0  0  0
  2  3  2  0  0  0  0
  2  1  1  0  0  0  0
  4  2  1  0  0  0  0
  5  3  1  0  0  0  0
  6  5  2  0  0  0  0
  7  8  1  0  0  0  0
  7  6  1  0  0  0  0
 10 11  1  0  0  0  0
 10  9  1  0  0  0  0
 12 10  1  0  0  0  0
 13 12  1  0  0  0  0
 14 13  1  0  0  0  0
 15 19  1  0  0  0  0
 15 13  2  0  0  0  0
 16 14  2  0  0  0  0
 17 15  1  0  0  0  0
 18 17  2  0  0  0  0
 18 16  1  0  0  0  0
M  END
>  <MODEL>
8

>  <REMARK>
 VINA RESULT:    -7.524      2.529      7.325
 INTER + INTRA:         -11.130
 INTER:                 -10.188
 INTRA:                  -0.943
 UNBOUND:                -0.527
 SMILES CC/C=C/C=C(\F)CCNCc1ccccc1F
 SMILES IDX 8 1 6 2 5 3 7 4 4 5 3 6 2 7 1 8 9 9 10 10 11 12 12 13 13 14
 SMILES IDX 17 15 14 16 16 17 15 18 18 19
 H PARENT 10 11

>  <TORSDO>
F 7

$$$$
research/ai4chem/closed_loop/ipf_cycle1/docking_1vjy/cand_0013_dock.pdbqt
 OpenBabel03012623503D

 19 19  0  0  0  0  0  0  0  0999 V2000
   16.0340   68.5170    5.5310 C   0  0  0  0  0  2  0  0  0  0  0  0
   15.3040   67.4310    4.7910 C   0  0  0  0  0  0  0  0  0  0  0  0
   15.0010   66.2390    5.3270 C   0  0  0  0  0  3  0  0  0  0  0  0
   14.9150   67.6930    3.5190 F   0  0  0  0  0  0  0  0  0  0  0  0
   14.2880   65.2020    4.6150 C   0  0  0  0  0  3  0  0  0  0  0  0
   12.9680   64.9990    4.7520 C   0  0  0  0  0  3  0  0  0  0  0  0
   12.1350   63.9520    4.0600 C   0  0  0  0  0  2  0  0  0  0  0  0
   10.6230   64.0840    4.1840 C   0  0  0  0  0  1  0  0  0  0  0  0
   17.2440   67.9980    6.3240 C   0  0  0  0  0  2  0  0  0  0  0  0
   18.5300   67.9790    5.6210 N   0  0  0  0  0  0  0  0  0  0  0  0
   18.3920   67.5690    4.6960 H   0  0  0  0  0  0  0  0  0  0  0  0
   19.1640   69.2870    5.4440 C   0  0  0  0  0  2  0  0  0  0  0  0
   19.8480   69.4640    4.1140 C   0  0  0  0  0  0  0  0  0  0  0  0
   21.2490   69.4630    4.0160 C   0  0  0  0  0  3  0  0  0  0  0  0
   19.1000   69.6280    2.9440 C   0  0  0  0  0  0  0  0  0  0  0  0
   21.8730   69.6180    2.7740 C   0  0  0  0  0  3  0  0  0  0  0  0
   19.7170   69.7830    1.7060 C   0  0  0  0  0  3  0  0  0  0  0  0
   21.1080   69.7770    1.6200 C   0  0  0  0  0  3  0  0  0  0  0  0
   17.7600   69.6560    3.0000 F   0  0  0  0  0  0  0  0  0  0  0  0
  1  9  1  0  0  0  0
  2  3  2  0  0  0  0
  2  1  1  0  0  0  0
  4  2  1  0  0  0  0
  5  6  2  0  0  0  0
  5  3  1  0  0  0  0
  7  8  1  0  0  0  0
  7  6  1  0  0  0  0
 10  9  1  0  0  0  0
 11 10  1  0  0  0  0
 12 10  1  0  0  0  0
 13 12  1  0  0  0  0
 14 13  1  0  0  0  0
 15 19  1  0  0  0  0
 15 13  2  0  0  0  0
 16 14  2  0  0  0  0
 17 15  1  0  0  0  0
 18 17  2  0  0  0  0
 18 16  1  0  0  0  0
M  END
>  <MODEL>
9

>  <REMARK>
 VINA RESULT:    -7.388      1.976      8.207
 INTER + INTRA:         -10.938
 INTER:                 -10.294
 INTRA:                  -0.644
 UNBOUND:                -0.527
 SMILES CC/C=C/C=C(\F)CCNCc1ccccc1F
 SMILES IDX 8 1 6 2 5 3 7 4 4 5 3 6 2 7 1 8 9 9 10 10 11 12 12 13 13 14
 SMILES IDX 17 15 14 16 16 17 15 18 18 19
 H PARENT 10 11

>  <TORSDO>
F 7

$$$$
research/ai4chem/closed_loop/ipf_cycle1/docking_1vjy/cand_0013_dock.pdbqt
 OpenBabel03012623503D

 19 19  0  0  0  0  0  0  0  0999 V2000
   15.1910   68.2060    5.2980 C   0  0  0  0  0  2  0  0  0  0  0  0
   16.2500   68.5420    6.3110 C   0  0  0  0  0  0  0  0  0  0  0  0
   17.5050   68.0700    6.2600 C   0  0  0  0  0  3  0  0  0  0  0  0
   15.9110   69.3900    7.3120 F   0  0  0  0  0  0  0  0  0  0  0  0
   18.5230   68.4050    7.2310 C   0  0  0  0  0  3  0  0  0  0  0  0
   18.9500   67.5420    8.1660 C   0  0  0  0  0  3  0  0  0  0  0  0
   19.9990   67.7900    9.2190 C   0  0  0  0  0  2  0  0  0  0  0  0
   19.5100   67.9510   10.6520 C   0  0  0  0  0  1  0  0  0  0  0  0
   15.6560   67.1720    4.2600 C   0  0  0  0  0  2  0  0  0  0  0  0
   14.6380   66.2440    3.7580 N   0  0  0  0  0  0  0  0  0  0  0  0
   14.9280   65.9050    2.8390 H   0  0  0  0  0  0  0  0  0  0  0  0
   14.3830   65.0790    4.6070 C   0  0  0  0  0  2  0  0  0  0  0  0
   12.9260   64.7250    4.7440 C   0  0  0  0  0  0  0  0  0  0  0  0
   12.1880   65.1220    5.8710 C   0  0  0  0  0  3  0  0  0  0  0  0
   12.2730   63.9950    3.7460 C   0  0  0  0  0  0  0  0  0  0  0  0
   10.8330   64.7960    5.9820 C   0  0  0  0  0  3  0  0  0  0  0  0
   10.9240   63.6680    3.8530 C   0  0  0  0  0  3  0  0  0  0  0  0
   10.2010   64.0700    4.9740 C   0  0  0  0  0  3  0  0  0  0  0  0
   12.9490   63.5780    2.6650 F   0  0  0  0  0  0  0  0  0  0  0  0
  1  2  1  0  0  0  0
  2  4  1  0  0  0  0
  3  2  2  0  0  0  0
  3  5  1  0  0  0  0
  5  6  2  0  0  0  0
  6  7  1  0  0  0  0
  7  8  1  0  0  0  0
  9  1  1  0  0  0  0
 10  9  1  0  0  0  0
 10 12  1  0  0  0  0
 11 10  1  0  0  0  0
 12 13  1  0  0  0  0
 13 14  1  0  0  0  0
 14 16  2  0  0  0  0
 15 17  1  0  0  0  0
 15 13  2  0  0  0  0
 17 18  2  0  0  0  0
 18 16  1  0  0  0  0
 19 15  1  0  0  0  0
M  END
>  <MODEL>
10

>  <REMARK>
 VINA RESULT:    -7.315      2.534      3.403
 INTER + INTRA:         -10.836
 INTER:                 -10.328
 INTRA:                  -0.508
 UNBOUND:                -0.527
 SMILES CC/C=C/C=C(\F)CCNCc1ccccc1F
 SMILES IDX 8 1 6 2 5 3 7 4 4 5 3 6 2 7 1 8 9 9 10 10 11 12 12 13 13 14
 SMILES IDX 17 15 14 16 16 17 15 18 18 19
 H PARENT 10 11

>  <TORSDO>
F 7

$$$$
research/ai4chem/closed_loop/ipf_cycle1/docking_1vjy/cand_0013_dock.pdbqt
 OpenBabel03012623503D

 19 19  0  0  0  0  0  0  0  0999 V2000
   14.8980   66.7930    6.3840 C   0  0  0  0  0  2  0  0  0  0  0  0
   15.4860   66.9840    5.0130 C   0  0  0  0  0  0  0  0  0  0  0  0
   15.9840   68.1490    4.5720 C   0  0  0  0  0  3  0  0  0  0  0  0
   15.5310   65.9040    4.1960 F   0  0  0  0  0  0  0  0  0  0  0  0
   16.5580   68.3250    3.2570 C   0  0  0  0  0  3  0  0  0  0  0  0
   17.5320   69.2120    3.0000 C   0  0  0  0  0  3  0  0  0  0  0  0
   18.1950   69.4720    1.6720 C   0  0  0  0  0  2  0  0  0  0  0  0
   19.6970   69.7140    1.6890 C   0  0  0  0  0  1  0  0  0  0  0  0
   15.4690   67.7680    7.4260 C   0  0  0  0  0  2  0  0  0  0  0  0
   16.7660   67.4160    8.0120 N   0  0  0  0  0  0  0  0  0  0  0  0
   17.2360   66.7530    7.3940 H   0  0  0  0  0  0  0  0  0  0  0  0
   17.6730   68.5410    8.2400 C   0  0  0  0  0  2  0  0  0  0  0  0
   18.6990   68.7330    7.1540 C   0  0  0  0  0  0  0  0  0  0  0  0
   19.1940   67.6400    6.4250 C   0  0  0  0  0  3  0  0  0  0  0  0
   19.1780   70.0100    6.8430 C   0  0  0  0  0  0  0  0  0  0  0  0
   20.1390   67.8310    5.4130 C   0  0  0  0  0  3  0  0  0  0  0  0
   20.1190   70.2050    5.8360 C   0  0  0  0  0  3  0  0  0  0  0  0
   20.6000   69.1130    5.1170 C   0  0  0  0  0  3  0  0  0  0  0  0
   18.7460   71.0770    7.5310 F   0  0  0  0  0  0  0  0  0  0  0  0
  1  9  1  0  0  0  0
  2  1  1  0  0  0  0
  3  2  2  0  0  0  0
  4  2  1  0  0  0  0
  5  3  1  0  0  0  0
  6  5  2  0  0  0  0
  7  8  1  0  0  0  0
  7  6  1  0  0  0  0
  9 10  1  0  0  0  0
 10 12  1  0  0  0  0
 11 10  1  0  0  0  0
 13 12  1  0  0  0  0
 14 13  2  0  0  0  0
 15 13  1  0  0  0  0
 15 19  1  0  0  0  0
 16 14  1  0  0  0  0
 17 15  2  0  0  0  0
 18 16  2  0  0  0  0
 18 17  1  0  0  0  0
M  END
>  <MODEL>
11

>  <REMARK>
 VINA RESULT:    -7.273      3.245      6.580
 INTER + INTRA:         -10.776
 INTER:                  -9.180
 INTRA:                  -1.597
 UNBOUND:                -0.527
 SMILES CC/C=C/C=C(\F)CCNCc1ccccc1F
 SMILES IDX 8 1 6 2 5 3 7 4 4 5 3 6 2 7 1 8 9 9 10 10 11 12 12 13 13 14
 SMILES IDX 17 15 14 16 16 17 15 18 18 19
 H PARENT 10 11

>  <TORSDO>
F 7

$$$$
research/ai4chem/closed_loop/ipf_cycle1/docking_1vjy/cand_0013_dock.pdbqt
 OpenBabel03012623503D

 19 19  0  0  0  0  0  0  0  0999 V2000
   16.5560   68.0530    4.0540 C   0  0  0  0  0  2  0  0  0  0  0  0
   17.2000   68.4680    5.3470 C   0  0  0  0  0  0  0  0  0  0  0  0
   18.4820   68.2140    5.6550 C   0  0  0  0  0  3  0  0  0  0  0  0
   16.4410   69.1590    6.2310 F   0  0  0  0  0  0  0  0  0  0  0  0
   19.1000   68.6250    6.8960 C   0  0  0  0  0  3  0  0  0  0  0  0
   19.7490   69.7920    7.0340 C   0  0  0  0  0  3  0  0  0  0  0  0
   20.4250   70.3130    8.2760 C   0  0  0  0  0  2  0  0  0  0  0  0
   21.9470   70.3110    8.2830 C   0  0  0  0  0  1  0  0  0  0  0  0
   15.1850   67.3860    4.2500 C   0  0  0  0  0  2  0  0  0  0  0  0
   15.1330   66.2540    5.1790 N   0  0  0  0  0  0  0  0  0  0  0  0
   14.5030   66.4900    5.9480 H   0  0  0  0  0  0  0  0  0  0  0  0
   14.6790   64.9900    4.5970 C   0  0  0  0  0  2  0  0  0  0  0  0
   13.2010   64.7430    4.7400 C   0  0  0  0  0  0  0  0  0  0  0  0
   12.4880   65.2340    5.8460 C   0  0  0  0  0  3  0  0  0  0  0  0
   12.5020   64.0200    3.7680 C   0  0  0  0  0  0  0  0  0  0  0  0
   11.1140   65.0070    5.9620 C   0  0  0  0  0  3  0  0  0  0  0  0
   11.1330   63.7910    3.8800 C   0  0  0  0  0  3  0  0  0  0  0  0
   10.4360   64.2870    4.9800 C   0  0  0  0  0  3  0  0  0  0  0  0
   13.1500   63.5140    2.7080 F   0  0  0  0  0  0  0  0  0  0  0  0
  1  9  1  0  0  0  0
  1  2  1  0  0  0  0
  2  3  2  0  0  0  0
  2  4  1  0  0  0  0
  3  5  1  0  0  0  0
  5  6  2  0  0  0  0
  6  7  1  0  0  0  0
  7  8  1  0  0  0  0
  9 10  1  0  0  0  0
 10 11  1  0  0  0  0
 12 13  1  0  0  0  0
 12 10  1  0  0  0  0
 13 14  1  0  0  0  0
 14 16  2  0  0  0  0
 15 17  1  0  0  0  0
 15 13  2  0  0  0  0
 17 18  2  0  0  0  0
 18 16  1  0  0  0  0
 19 15  1  0  0  0  0
M  END
>  <MODEL>
12

>  <REMARK>
 VINA RESULT:    -7.247      2.222      2.663
 INTER + INTRA:         -10.741
 INTER:                 -10.264
 INTRA:                  -0.477
 UNBOUND:                -0.527
 SMILES CC/C=C/C=C(\F)CCNCc1ccccc1F
 SMILES IDX 8 1 6 2 5 3 7 4 4 5 3 6 2 7 1 8 9 9 10 10 11 12 12 13 13 14
 SMILES IDX 17 15 14 16 16 17 15 18 18 19
 H PARENT 10 11

>  <TORSDO>
F 7

$$$$
research/ai4chem/closed_loop/ipf_cycle1/docking_1vjy/cand_0013_dock.pdbqt
 OpenBabel03012623503D

 19 19  0  0  0  0  0  0  0  0999 V2000
   18.0700   70.0650    7.6050 C   0  0  0  0  0  2  0  0  0  0  0  0
   17.3490   68.7750    7.3320 C   0  0  0  0  0  0  0  0  0  0  0  0
   16.0140   68.6760    7.2260 C   0  0  0  0  0  3  0  0  0  0  0  0
   18.1010   67.6610    7.1620 F   0  0  0  0  0  0  0  0  0  0  0  0
   15.3260   67.4340    6.9530 C   0  0  0  0  0  3  0  0  0  0  0  0
   15.0930   66.9890    5.7080 C   0  0  0  0  0  3  0  0  0  0  0  0
   14.3880   65.7170    5.3170 C   0  0  0  0  0  2  0  0  0  0  0  0
   14.9280   64.9780    4.1010 C   0  0  0  0  0  1  0  0  0  0  0  0
   19.5560   70.0210    7.2110 C   0  0  0  0  0  2  0  0  0  0  0  0
   19.8820   70.4220    5.8390 N   0  0  0  0  0  0  0  0  0  0  0  0
   20.7100   71.0210    5.8610 H   0  0  0  0  0  0  0  0  0  0  0  0
   20.1480   69.3190    4.9140 C   0  0  0  0  0  2  0  0  0  0  0  0
   19.1770   69.2320    3.7660 C   0  0  0  0  0  0  0  0  0  0  0  0
   17.8630   68.7790    3.9620 C   0  0  0  0  0  3  0  0  0  0  0  0
   19.5650   69.6080    2.4760 C   0  0  0  0  0  0  0  0  0  0  0  0
   16.9680   68.7130    2.8900 C   0  0  0  0  0  3  0  0  0  0  0  0
   18.6770   69.5420    1.4050 C   0  0  0  0  0  3  0  0  0  0  0  0
   17.3740   69.0950    1.6120 C   0  0  0  0  0  3  0  0  0  0  0  0
   20.8180   70.0250    2.2430 F   0  0  0  0  0  0  0  0  0  0  0  0
  2  1  1  0  0  0  0
  3  2  2  0  0  0  0
  4  2  1  0  0  0  0
  5  3  1  0  0  0  0
  6  5  2  0  0  0  0
  7  6  1  0  0  0  0
  8  7  1  0  0  0  0
  9  1  1  0  0  0  0
 10 11  1  0  0  0  0
 10  9  1  0  0  0  0
 12 10  1  0  0  0  0
 13 14  1  0  0  0  0
 13 12  1  0  0  0  0
 15 13  2  0  0  0  0
 16 14  2  0  0  0  0
 17 18  2  0  0  0  0
 17 15  1  0  0  0  0
 18 16  1  0  0  0  0
 19 15  1  0  0  0  0
M  END
>  <MODEL>
13

>  <REMARK>
 VINA RESULT:    -7.205      3.254      7.112
 INTER + INTRA:         -10.680
 INTER:                  -9.468
 INTRA:                  -1.212
 UNBOUND:                -0.527
 SMILES CC/C=C/C=C(\F)CCNCc1ccccc1F
 SMILES IDX 8 1 6 2 5 3 7 4 4 5 3 6 2 7 1 8 9 9 10 10 11 12 12 13 13 14
 SMILES IDX 17 15 14 16 16 17 15 18 18 19
 H PARENT 10 11

>  <TORSDO>
F 7

$$$$
research/ai4chem/closed_loop/ipf_cycle1/docking_1vjy/cand_0013_dock.pdbqt
 OpenBabel03012623503D

 19 19  0  0  0  0  0  0  0  0999 V2000
   19.1180   67.7620    7.6590 C   0  0  0  0  0  2  0  0  0  0  0  0
   19.6050   68.1390    6.2880 C   0  0  0  0  0  0  0  0  0  0  0  0
   19.3880   69.3370    5.7240 C   0  0  0  0  0  3  0  0  0  0  0  0
   20.3240   67.2160    5.6040 F   0  0  0  0  0  0  0  0  0  0  0  0
   19.8680   69.6980    4.4080 C   0  0  0  0  0  3  0  0  0  0  0  0
   19.2090   69.3850    3.2820 C   0  0  0  0  0  3  0  0  0  0  0  0
   19.6210   69.7110    1.8700 C   0  0  0  0  0  2  0  0  0  0  0  0
   21.1150   69.7890    1.5890 C   0  0  0  0  0  1  0  0  0  0  0  0
   18.1990   68.8230    8.2860 C   0  0  0  0  0  2  0  0  0  0  0  0
   16.7820   68.4720    8.4100 N   0  0  0  0  0  0  0  0  0  0  0  0
   16.4470   68.7770    9.3260 H   0  0  0  0  0  0  0  0  0  0  0  0
   15.9040   69.0530    7.3930 C   0  0  0  0  0  2  0  0  0  0  0  0
   15.5190   68.0980    6.2940 C   0  0  0  0  0  0  0  0  0  0  0  0
   16.1100   68.1810    5.0230 C   0  0  0  0  0  3  0  0  0  0  0  0
   14.5640   67.1010    6.5190 C   0  0  0  0  0  0  0  0  0  0  0  0
   15.7510   67.2820    4.0140 C   0  0  0  0  0  3  0  0  0  0  0  0
   14.2040   66.2040    5.5170 C   0  0  0  0  0  3  0  0  0  0  0  0
   14.7990   66.2940    4.2610 C   0  0  0  0  0  3  0  0  0  0  0  0
   13.9610   67.0030    7.7130 F   0  0  0  0  0  0  0  0  0  0  0  0
  1  9  1  0  0  0  0
  2  1  1  0  0  0  0
  3  2  2  0  0  0  0
  4  2  1  0  0  0  0
  5  3  1  0  0  0  0
  6  5  2  0  0  0  0
  7  6  1  0  0  0  0
  8  7  1  0  0  0  0
  9 10  1  0  0  0  0
 10 11  1  0  0  0  0
 12 10  1  0  0  0  0
 13 15  1  0  0  0  0
 13 12  1  0  0  0  0
 14 13  2  0  0  0  0
 15 19  1  0  0  0  0
 16 18  2  0  0  0  0
 16 14  1  0  0  0  0
 17 15  2  0  0  0  0
 18 17  1  0  0  0  0
M  END
>  <MODEL>
14

>  <REMARK>
 VINA RESULT:    -7.188      2.957      4.136
 INTER + INTRA:         -10.657
 INTER:                  -9.487
 INTRA:                  -1.170
 UNBOUND:                -0.527
 SMILES CC/C=C/C=C(\F)CCNCc1ccccc1F
 SMILES IDX 8 1 6 2 5 3 7 4 4 5 3 6 2 7 1 8 9 9 10 10 11 12 12 13 13 14
 SMILES IDX 17 15 14 16 16 17 15 18 18 19
 H PARENT 10 11

>  <TORSDO>
F 7

$$$$
research/ai4chem/closed_loop/ipf_cycle1/docking_1vjy/cand_0013_dock.pdbqt
 OpenBabel03012623503D

 19 19  0  0  0  0  0  0  0  0999 V2000
   17.1130   68.4670    3.3780 C   0  0  0  0  0  2  0  0  0  0  0  0
   15.8150   67.7780    3.6970 C   0  0  0  0  0  0  0  0  0  0  0  0
   15.6690   66.8870    4.6910 C   0  0  0  0  0  3  0  0  0  0  0  0
   14.7340   68.1010    2.9470 F   0  0  0  0  0  0  0  0  0  0  0  0
   14.4160   66.2350    5.0000 C   0  0  0  0  0  3  0  0  0  0  0  0
   13.9840   65.1440    4.3500 C   0  0  0  0  0  3  0  0  0  0  0  0
   12.7010   64.3920    4.5930 C   0  0  0  0  0  2  0  0  0  0  0  0
   11.9550   64.7030    5.8830 C   0  0  0  0  0  1  0  0  0  0  0  0
   16.9390   69.6850    2.4580 C   0  0  0  0  0  2  0  0  0  0  0  0
   18.1670   70.3420    2.0000 N   0  0  0  0  0  0  0  0  0  0  0  0
   18.5660   70.8710    2.7780 H   0  0  0  0  0  0  0  0  0  0  0  0
   19.2020   69.4410    1.4900 C   0  0  0  0  0  2  0  0  0  0  0  0
   20.5900   69.7620    1.9780 C   0  0  0  0  0  0  0  0  0  0  0  0
   21.5350   70.3620    1.1290 C   0  0  0  0  0  3  0  0  0  0  0  0
   20.9680   69.4730    3.2930 C   0  0  0  0  0  0  0  0  0  0  0  0
   22.8180   70.6640    1.5960 C   0  0  0  0  0  3  0  0  0  0  0  0
   22.2450   69.7720    3.7610 C   0  0  0  0  0  3  0  0  0  0  0  0
   23.1730   70.3700    2.9110 C   0  0  0  0  0  3  0  0  0  0  0  0
   20.1030   68.8800    4.1280 F   0  0  0  0  0  0  0  0  0  0  0  0
  1  2  1  0  0  0  0
  2  3  2  0  0  0  0
  3  5  1  0  0  0  0
  4  2  1  0  0  0  0
  6  7  1  0  0  0  0
  6  5  2  0  0  0  0
  7  8  1  0  0  0  0
  9  1  1  0  0  0  0
 10  9  1  0  0  0  0
 10 11  1  0  0  0  0
 12 13  1  0  0  0  0
 12 10  1  0  0  0  0
 13 15  1  0  0  0  0
 14 16  1  0  0  0  0
 14 13  2  0  0  0  0
 15 17  2  0  0  0  0
 15 19  1  0  0  0  0
 16 18  2  0  0  0  0
 18 17  1  0  0  0  0
M  END
>  <MODEL>
15

>  <REMARK>
 VINA RESULT:    -7.135      2.181      8.888
 INTER + INTRA:         -10.582
 INTER:                 -10.055
 INTRA:                  -0.527
 UNBOUND:                -0.527
 SMILES CC/C=C/C=C(\F)CCNCc1ccccc1F
 SMILES IDX 8 1 6 2 5 3 7 4 4 5 3 6 2 7 1 8 9 9 10 10 11 12 12 13 13 14
 SMILES IDX 17 15 14 16 16 17 15 18 18 19
 H PARENT 10 11

>  <TORSDO>
F 7

$$$$
research/ai4chem/closed_loop/ipf_cycle1/docking_1vjy/cand_0013_dock.pdbqt
 OpenBabel03012623503D

 19 19  0  0  0  0  0  0  0  0999 V2000
   19.7450   69.4930    2.3320 C   0  0  0  0  0  2  0  0  0  0  0  0
   19.8960   69.4940    3.8280 C   0  0  0  0  0  0  0  0  0  0  0  0
   20.1760   68.3970    4.5490 C   0  0  0  0  0  3  0  0  0  0  0  0
   19.7650   70.6800    4.4700 F   0  0  0  0  0  0  0  0  0  0  0  0
   20.3320   68.4050    5.9860 C   0  0  0  0  0  3  0  0  0  0  0  0
   19.7320   67.5110    6.7890 C   0  0  0  0  0  3  0  0  0  0  0  0
   19.8280   67.4330    8.2900 C   0  0  0  0  0  2  0  0  0  0  0  0
   18.6740   66.7580    9.0180 C   0  0  0  0  0  1  0  0  0  0  0  0
   18.2780   69.4600    1.8750 C   0  0  0  0  0  2  0  0  0  0  0  0
   17.2610   69.4870    2.9300 N   0  0  0  0  0  0  0  0  0  0  0  0
   16.6240   70.2660    2.7520 H   0  0  0  0  0  0  0  0  0  0  0  0
   16.4580   68.2690    3.0540 C   0  0  0  0  0  2  0  0  0  0  0  0
   16.0820   67.9220    4.4700 C   0  0  0  0  0  0  0  0  0  0  0  0
   16.4990   68.7230    5.5460 C   0  0  0  0  0  3  0  0  0  0  0  0
   15.3040   66.7930    4.7450 C   0  0  0  0  0  0  0  0  0  0  0  0
   16.1350   68.3960    6.8560 C   0  0  0  0  0  3  0  0  0  0  0  0
   14.9400   66.4640    6.0480 C   0  0  0  0  0  3  0  0  0  0  0  0
   15.3560   67.2680    7.1070 C   0  0  0  0  0  3  0  0  0  0  0  0
   14.9050   65.9900    3.7470 F   0  0  0  0  0  0  0  0  0  0  0  0
  1  2  1  0  0  0  0
  2  4  1  0  0  0  0
  2  3  2  0  0  0  0
  3  5  1  0  0  0  0
  5  6  2  0  0  0  0
  6  7  1  0  0  0  0
  7  8  1  0  0  0  0
  9  1  1  0  0  0  0
  9 10  1  0  0  0  0
 10 12  1  0  0  0  0
 11 10  1  0  0  0  0
 12 13  1  0  0  0  0
 13 15  2  0  0  0  0
 13 14  1  0  0  0  0
 14 16  2  0  0  0  0
 15 17  1  0  0  0  0
 16 18  1  0  0  0  0
 17 18  2  0  0  0  0
 19 15  1  0  0  0  0
M  END
>  <MODEL>
16

>  <REMARK>
 VINA RESULT:    -7.074      3.044      4.989
 INTER + INTRA:         -10.496
 INTER:                  -9.052
 INTRA:                  -1.444
 UNBOUND:                -0.527
 SMILES CC/C=C/C=C(\F)CCNCc1ccccc1F
 SMILES IDX 8 1 6 2 5 3 7 4 4 5 3 6 2 7 1 8 9 9 10 10 11 12 12 13 13 14
 SMILES IDX 17 15 14 16 16 17 15 18 18 19
 H PARENT 10 11

>  <TORSDO>
F 7

$$$$
research/ai4chem/closed_loop/ipf_cycle1/docking_1vjy/cand_0013_dock.pdbqt
 OpenBabel03012623503D

 19 19  0  0  0  0  0  0  0  0999 V2000
   15.6360   68.0610    5.7120 C   0  0  0  0  0  2  0  0  0  0  0  0
   16.8280   68.7630    6.3000 C   0  0  0  0  0  0  0  0  0  0  0  0
   18.0990   68.4290    6.0260 C   0  0  0  0  0  3  0  0  0  0  0  0
   16.5930   69.8050    7.1330 F   0  0  0  0  0  0  0  0  0  0  0  0
   19.2430   69.1140    6.5870 C   0  0  0  0  0  3  0  0  0  0  0  0
   20.0040   69.9610    5.8760 C   0  0  0  0  0  3  0  0  0  0  0  0
   21.2110   70.7220    6.3610 C   0  0  0  0  0  2  0  0  0  0  0  0
   21.7340   70.3690    7.7470 C   0  0  0  0  0  1  0  0  0  0  0  0
   15.9790   67.2320    4.4640 C   0  0  0  0  0  2  0  0  0  0  0  0
   14.8760   66.4900    3.8460 N   0  0  0  0  0  0  0  0  0  0  0  0
   15.0600   66.4030    2.8450 H   0  0  0  0  0  0  0  0  0  0  0  0
   14.6510   65.1470    4.3810 C   0  0  0  0  0  2  0  0  0  0  0  0
   13.2040   64.8230    4.6420 C   0  0  0  0  0  0  0  0  0  0  0  0
   12.4850   63.9780    3.7810 C   0  0  0  0  0  3  0  0  0  0  0  0
   12.5440   65.3560    5.7540 C   0  0  0  0  0  0  0  0  0  0  0  0
   11.1440   63.6770    4.0390 C   0  0  0  0  0  3  0  0  0  0  0  0
   11.2090   65.0590    6.0150 C   0  0  0  0  0  3  0  0  0  0  0  0
   10.5060   64.2160    5.1560 C   0  0  0  0  0  3  0  0  0  0  0  0
   13.1900   66.1850    6.5880 F   0  0  0  0  0  0  0  0  0  0  0  0
  1  2  1  0  0  0  0
  2  4  1  0  0  0  0
  3  2  2  0  0  0  0
  3  5  1  0  0  0  0
  6  7  1  0  0  0  0
  6  5  2  0  0  0  0
  7  8  1  0  0  0  0
  9  1  1  0  0  0  0
 10 12  1  0  0  0  0
 10  9  1  0  0  0  0
 11 10  1  0  0  0  0
 12 13  1  0  0  0  0
 13 15  1  0  0  0  0
 14 16  1  0  0  0  0
 14 13  2  0  0  0  0
 15 17  2  0  0  0  0
 15 19  1  0  0  0  0
 16 18  2  0  0  0  0
 18 17  1  0  0  0  0
M  END
>  <MODEL>
17

>  <REMARK>
 VINA RESULT:    -7.065      2.283      2.765
 INTER + INTRA:         -10.483
 INTER:                  -9.941
 INTRA:                  -0.543
 UNBOUND:                -0.527
 SMILES CC/C=C/C=C(\F)CCNCc1ccccc1F
 SMILES IDX 8 1 6 2 5 3 7 4 4 5 3 6 2 7 1 8 9 9 10 10 11 12 12 13 13 14
 SMILES IDX 17 15 14 16 16 17 15 18 18 19
 H PARENT 10 11

>  <TORSDO>
F 7

$$$$
research/ai4chem/closed_loop/ipf_cycle1/docking_1vjy/cand_0013_dock.pdbqt
 OpenBabel03012623503D

 19 19  0  0  0  0  0  0  0  0999 V2000
   16.2160   68.3860    3.3950 C   0  0  0  0  0  2  0  0  0  0  0  0
   17.2070   68.4360    4.5250 C   0  0  0  0  0  0  0  0  0  0  0  0
   16.8740   68.7110    5.7960 C   0  0  0  0  0  3  0  0  0  0  0  0
   18.5020   68.1610    4.2340 F   0  0  0  0  0  0  0  0  0  0  0  0
   17.8300   68.7470    6.8800 C   0  0  0  0  0  3  0  0  0  0  0  0
   17.5490   68.2950    8.1130 C   0  0  0  0  0  3  0  0  0  0  0  0
   18.4680   68.2870    9.3070 C   0  0  0  0  0  2  0  0  0  0  0  0
   19.3900   67.0850    9.4570 C   0  0  0  0  0  1  0  0  0  0  0  0
   14.9400   67.6050    3.7460 C   0  0  0  0  0  2  0  0  0  0  0  0
   14.9650   66.1610    3.4970 N   0  0  0  0  0  0  0  0  0  0  0  0
   15.8890   65.9050    3.1450 H   0  0  0  0  0  0  0  0  0  0  0  0
   14.6780   65.3220    4.6610 C   0  0  0  0  0  2  0  0  0  0  0  0
   13.2290   64.9320    4.7960 C   0  0  0  0  0  0  0  0  0  0  0  0
   12.6250   64.0630    3.8720 C   0  0  0  0  0  3  0  0  0  0  0  0
   12.4540   65.4240    5.8500 C   0  0  0  0  0  0  0  0  0  0  0  0
   11.2820   63.7010    4.0130 C   0  0  0  0  0  3  0  0  0  0  0  0
   11.1160   65.0660    5.9940 C   0  0  0  0  0  3  0  0  0  0  0  0
   10.5280   64.2010    5.0740 C   0  0  0  0  0  3  0  0  0  0  0  0
   12.9880   66.2740    6.7390 F   0  0  0  0  0  0  0  0  0  0  0  0
  1  9  1  0  0  0  0
  1  2  1  0  0  0  0
  2  3  2  0  0  0  0
  3  5  1  0  0  0  0
  4  2  1  0  0  0  0
  5  6  2  0  0  0  0
  6  7  1  0  0  0  0
  7  8  1  0  0  0  0
 10  9  1  0  0  0  0
 10 12  1  0  0  0  0
 11 10  1  0  0  0  0
 12 13  1  0  0  0  0
 13 15  1  0  0  0  0
 14 16  1  0  0  0  0
 14 13  2  0  0  0  0
 15 17  2  0  0  0  0
 15 19  1  0  0  0  0
 16 18  2  0  0  0  0
 18 17  1  0  0  0  0
M  END
>  <MODEL>
18

>  <REMARK>
 VINA RESULT:    -7.062      2.250      3.628
 INTER + INTRA:         -10.480
 INTER:                  -9.934
 INTRA:                  -0.545
 UNBOUND:                -0.527
 SMILES CC/C=C/C=C(\F)CCNCc1ccccc1F
 SMILES IDX 8 1 6 2 5 3 7 4 4 5 3 6 2 7 1 8 9 9 10 10 11 12 12 13 13 14
 SMILES IDX 17 15 14 16 16 17 15 18 18 19
 H PARENT 10 11

>  <TORSDO>
F 7

$$$$
research/ai4chem/closed_loop/ipf_cycle1/docking_1vjy/cand_0013_dock.pdbqt
 OpenBabel03012623503D

 19 19  0  0  0  0  0  0  0  0999 V2000
   20.9950   69.6720    3.9050 C   0  0  0  0  0  2  0  0  0  0  0  0
   19.7150   68.8900    3.8110 C   0  0  0  0  0  0  0  0  0  0  0  0
   18.6690   69.2620    3.0560 C   0  0  0  0  0  3  0  0  0  0  0  0
   19.6330   67.7350    4.5150 F   0  0  0  0  0  0  0  0  0  0  0  0
   17.4430   68.5000    2.9610 C   0  0  0  0  0  3  0  0  0  0  0  0
   16.5530   68.4260    3.9630 C   0  0  0  0  0  3  0  0  0  0  0  0
   15.2530   67.6650    3.9670 C   0  0  0  0  0  2  0  0  0  0  0  0
   15.2760   66.2660    4.5680 C   0  0  0  0  0  1  0  0  0  0  0  0
   21.3300   70.1130    5.3390 C   0  0  0  0  0  2  0  0  0  0  0  0
   20.2410   70.7200    6.1090 N   0  0  0  0  0  0  0  0  0  0  0  0
   19.3900   70.7030    5.5440 H   0  0  0  0  0  0  0  0  0  0  0  0
   19.9450   70.0740    7.3890 C   0  0  0  0  0  2  0  0  0  0  0  0
   18.5610   69.4870    7.4760 C   0  0  0  0  0  0  0  0  0  0  0  0
   17.4270   70.3130    7.5340 C   0  0  0  0  0  3  0  0  0  0  0  0
   18.3750   68.1010    7.4950 C   0  0  0  0  0  0  0  0  0  0  0  0
   16.1470   69.7570    7.6040 C   0  0  0  0  0  3  0  0  0  0  0  0
   17.1010   67.5430    7.5660 C   0  0  0  0  0  3  0  0  0  0  0  0
   15.9830   68.3730    7.6190 C   0  0  0  0  0  3  0  0  0  0  0  0
   19.4330   67.2780    7.4640 F   0  0  0  0  0  0  0  0  0  0  0  0
  1  9  1  0  0  0  0
  2  1  1  0  0  0  0
  2  4  1  0  0  0  0
  3  2  2  0  0  0  0
  5  3  1  0  0  0  0
  5  6  2  0  0  0  0
  6  7  1  0  0  0  0
  7  8  1  0  0  0  0
  9 10  1  0  0  0  0
 10 12  1  0  0  0  0
 11 10  1  0  0  0  0
 12 13  1  0  0  0  0
 13 15  2  0  0  0  0
 13 14  1  0  0  0  0
 14 16  2  0  0  0  0
 15 17  1  0  0  0  0
 16 18  1  0  0  0  0
 17 18  2  0  0  0  0
 19 15  1  0  0  0  0
M  END
>  <MODEL>
19

>  <REMARK>
 VINA RESULT:    -7.026      3.751      6.505
 INTER + INTRA:         -10.428
 INTER:                  -8.716
 INTRA:                  -1.712
 UNBOUND:                -0.527
 SMILES CC/C=C/C=C(\F)CCNCc1ccccc1F
 SMILES IDX 8 1 6 2 5 3 7 4 4 5 3 6 2 7 1 8 9 9 10 10 11 12 12 13 13 14
 SMILES IDX 17 15 14 16 16 17 15 18 18 19
 H PARENT 10 11

>  <TORSDO>
F 7

$$$$
research/ai4chem/closed_loop/ipf_cycle1/docking_1vjy/cand_0013_dock.pdbqt
 OpenBabel03012623503D

 19 19  0  0  0  0  0  0  0  0999 V2000
   19.0960   69.7410    3.5260 C   0  0  0  0  0  2  0  0  0  0  0  0
   18.0650   68.6520    3.4220 C   0  0  0  0  0  0  0  0  0  0  0  0
   16.9650   68.5920    4.1890 C   0  0  0  0  0  3  0  0  0  0  0  0
   18.2560   67.6970    2.4790 F   0  0  0  0  0  0  0  0  0  0  0  0
   15.9710   67.5480    4.0770 C   0  0  0  0  0  3  0  0  0  0  0  0
   15.5350   66.8420    5.1330 C   0  0  0  0  0  3  0  0  0  0  0  0
   14.5080   65.7400    5.1250 C   0  0  0  0  0  2  0  0  0  0  0  0
   14.5890   64.7320    3.9860 C   0  0  0  0  0  1  0  0  0  0  0  0
   20.4720   69.2280    3.9800 C   0  0  0  0  0  2  0  0  0  0  0  0
   20.4760   68.0750    4.8840 N   0  0  0  0  0  0  0  0  0  0  0  0
   21.2530   67.4620    4.6310 H   0  0  0  0  0  0  0  0  0  0  0  0
   20.6010   68.3980    6.3070 C   0  0  0  0  0  2  0  0  0  0  0  0
   19.2860   68.6220    7.0050 C   0  0  0  0  0  0  0  0  0  0  0  0
   18.5280   67.5410    7.4840 C   0  0  0  0  0  3  0  0  0  0  0  0
   18.7930   69.9160    7.1970 C   0  0  0  0  0  0  0  0  0  0  0  0
   17.3130   67.7620    8.1400 C   0  0  0  0  0  3  0  0  0  0  0  0
   17.5820   70.1410    7.8480 C   0  0  0  0  0  3  0  0  0  0  0  0
   16.8410   69.0610    8.3230 C   0  0  0  0  0  3  0  0  0  0  0  0
   19.4760   70.9730    6.7340 F   0  0  0  0  0  0  0  0  0  0  0  0
  1  9  1  0  0  0  0
  2  1  1  0  0  0  0
  2  3  2  0  0  0  0
  4  2  1  0  0  0  0
  5  3  1  0  0  0  0
  5  6  2  0  0  0  0
  7  6  1  0  0  0  0
  8  7  1  0  0  0  0
  9 10  1  0  0  0  0
 10 12  1  0  0  0  0
 11 10  1  0  0  0  0
 12 13  1  0  0  0  0
 13 15  2  0  0  0  0
 13 14  1  0  0  0  0
 14 16  2  0  0  0  0
 15 17  1  0  0  0  0
 16 18  1  0  0  0  0
 17 18  2  0  0  0  0
 19 15  1  0  0  0  0
M  END
>  <MODEL>
20

>  <REMARK>
 VINA RESULT:    -6.990      3.079      6.987
 INTER + INTRA:         -10.378
 INTER:                  -8.752
 INTRA:                  -1.626
 UNBOUND:                -0.527
 SMILES CC/C=C/C=C(\F)CCNCc1ccccc1F
 SMILES IDX 8 1 6 2 5 3 7 4 4 5 3 6 2 7 1 8 9 9 10 10 11 12 12 13 13 14
 SMILES IDX 17 15 14 16 16 17 15 18 18 19
 H PARENT 10 11

>  <TORSDO>
F 7

$$$$
