research/ai4chem/closed_loop/ipf_cycle1/docking_1vjy/cand_0010_dock.pdbqt
 OpenBabel03012623503D

 21 24  0  0  1  0  0  0  0  0999 V2000
   17.3960   70.0330    2.1990 C   0  0  0  0  0  3  0  0  0  0  0  0
   16.7660   68.8660    2.3710 C   0  0  0  0  0  3  0  0  0  0  0  0
   18.6810   70.0690    1.7460 N   0  0  0  0  0  0  0  0  0  0  0  0
   19.7930   69.9230    2.5340 C   0  0  0  0  0  0  0  0  0  0  0  0
   19.8240   69.7720    3.7450 O   0  0  0  0  0  0  0  0  0  0  0  0
   18.8610   70.1660    0.7560 H   0  0  0  0  0  0  0  0  0  0  0  0
   21.2190   69.9810    1.5230 S   0  0  0  0  0  0  0  0  0  0  0  0
   22.4780   69.9320    2.8120 C   0  0  0  0  0  1  0  0  0  0  0  0
   15.3940   68.7320    2.9400 C   0  0  0  0  0  2  0  0  0  0  0  0
   15.4210   67.8970    4.2160 C   0  0  1  0  0  3  0  0  0  0  0  0
   16.4420   67.1950    4.8910 C   0  0  2  0  0  0  0  0  0  0  0  0
   15.0330   68.3230    5.6730 C   0  0  2  0  0  0  0  0  0  0  0  0
   17.2770   68.0910    5.8000 C   0  0  0  0  0  2  0  0  0  0  0  0
   15.1040   66.7170    5.8140 C   0  0  1  0  0  3  0  0  0  0  0  0
   16.3070   68.9080    6.2460 C   0  0  0  0  0  2  0  0  0  0  0  0
   14.1670   65.6350    5.0880 C   0  0  0  0  0  0  0  0  0  0  0  0
   12.8100   65.4940    5.4540 C   0  0  0  0  0  3  0  0  0  0  0  0
   14.6130   64.8120    4.0360 C   0  0  0  0  0  3  0  0  0  0  0  0
   11.9540   64.5840    4.8220 C   0  0  0  0  0  3  0  0  0  0  0  0
   13.7610   63.8970    3.3990 C   0  0  0  0  0  3  0  0  0  0  0  0
   12.4310   63.7830    3.7930 C   0  0  0  0  0  3  0  0  0  0  0  0
  1  2  2  0  0  0  0
  2  9  1  0  0  0  0
  3  1  1  0  0  0  0
  3  4  1  0  0  0  0
  4  5  2  0  0  0  0
  6  3  1  0  0  0  0
  7  4  1  0  0  0  0
  7  8  1  0  0  0  0
 10  9  1  6  0  0  0
 10 11  1  0  0  0  0
 10 12  1  0  0  0  0
 11 12  1  0  0  0  0
 11 13  1  6  0  0  0
 11 14  1  0  0  0  0
 12 14  1  0  0  0  0
 12 15  1  1  0  0  0
 13 15  1  0  0  0  0
 14 16  1  6  0  0  0
 16 17  1  0  0  0  0
 18 16  2  0  0  0  0
 19 17  2  0  0  0  0
 20 21  2  0  0  0  0
 20 18  1  0  0  0  0
 21 19  1  0  0  0  0
M  END
>  <MODEL>
1

>  <REMARK>
 VINA RESULT:    -8.845      0.000      0.000
 INTER + INTRA:         -11.773
 INTER:                 -11.430
 INTRA:                  -0.342
 UNBOUND:                -0.342
 SMILES CSC(=O)N/C=C/CC1=C2C=C[C@@H]1[C@H]2c1ccccc1
 SMILES IDX 6 1 7 2 5 3 3 4 4 5 2 7 1 8 8 9 9 10 10 11 13 12 11 13 14 14
 SMILES IDX 12 15 15 16 16 17 20 18 17 19 19 20 18 21
 H PARENT 5 6

>  <TORSDO>
F 5

$$$$
research/ai4chem/closed_loop/ipf_cycle1/docking_1vjy/cand_0010_dock.pdbqt
 OpenBabel03012623503D

 21 24  0  0  1  0  0  0  0  0999 V2000
   14.4160   67.2960    6.9700 C   0  0  0  0  0  3  0  0  0  0  0  0
   15.2700   68.0190    6.2370 C   0  0  0  0  0  3  0  0  0  0  0  0
   13.6480   66.3290    6.3910 N   0  0  0  0  0  0  0  0  0  0  0  0
   12.2870   66.2300    6.5200 C   0  0  0  0  0  0  0  0  0  0  0  0
   11.5540   66.9480    7.1810 O   0  0  0  0  0  0  0  0  0  0  0  0
   14.0770   65.6470    5.7810 H   0  0  0  0  0  0  0  0  0  0  0  0
   11.7230   64.8790    5.5640 S   0  0  0  0  0  0  0  0  0  0  0  0
   13.1360   64.7090    4.4570 C   0  0  0  0  0  1  0  0  0  0  0  0
   16.0840   69.1490    6.7730 C   0  0  0  0  0  2  0  0  0  0  0  0
   17.5650   68.9260    6.4870 C   0  0  1  0  0  3  0  0  0  0  0  0
   18.7380   69.6050    6.8770 C   0  0  2  0  0  0  0  0  0  0  0  0
   18.4400   67.6620    6.7850 C   0  0  2  0  0  0  0  0  0  0  0  0
   19.2360   69.1810    8.2560 C   0  0  0  0  0  2  0  0  0  0  0  0
   19.3990   68.4910    5.7850 C   0  0  1  0  0  3  0  0  0  0  0  0
   18.9340   67.8730    8.2020 C   0  0  0  0  0  2  0  0  0  0  0  0
   19.1210   68.8480    4.2460 C   0  0  0  0  0  0  0  0  0  0  0  0
   20.0520   69.6050    3.5000 C   0  0  0  0  0  3  0  0  0  0  0  0
   17.9840   68.4030    3.5450 C   0  0  0  0  0  3  0  0  0  0  0  0
   19.8600   69.9090    2.1470 C   0  0  0  0  0  3  0  0  0  0  0  0
   17.7830   68.7060    2.1890 C   0  0  0  0  0  3  0  0  0  0  0  0
   18.7220   69.4600    1.4910 C   0  0  0  0  0  3  0  0  0  0  0  0
  2  9  1  0  0  0  0
  2  1  2  0  0  0  0
  3  4  1  0  0  0  0
  3  1  1  0  0  0  0
  4  5  2  0  0  0  0
  6  3  1  0  0  0  0
  7  4  1  0  0  0  0
  8  7  1  0  0  0  0
 10  9  1  1  0  0  0
 10 12  1  0  0  0  0
 10 11  1  0  0  0  0
 11 13  1  1  0  0  0
 12 11  1  0  0  0  0
 12 15  1  1  0  0  0
 14 16  1  6  0  0  0
 14 12  1  0  0  0  0
 14 11  1  0  0  0  0
 15 13  1  0  0  0  0
 17 16  2  0  0  0  0
 18 16  1  0  0  0  0
 19 17  1  0  0  0  0
 20 18  2  0  0  0  0
 21 19  2  0  0  0  0
 21 20  1  0  0  0  0
M  END
>  <MODEL>
2

>  <REMARK>
 VINA RESULT:    -8.353      4.087      7.035
 INTER + INTRA:         -11.137
 INTER:                 -10.524
 INTRA:                  -0.613
 UNBOUND:                -0.342
 SMILES CSC(=O)N/C=C/CC1=C2C=C[C@@H]1[C@H]2c1ccccc1
 SMILES IDX 6 1 7 2 5 3 3 4 4 5 2 7 1 8 8 9 9 10 10 11 13 12 11 13 14 14
 SMILES IDX 12 15 15 16 16 17 20 18 17 19 19 20 18 21
 H PARENT 5 6

>  <TORSDO>
F 5

$$$$
research/ai4chem/closed_loop/ipf_cycle1/docking_1vjy/cand_0010_dock.pdbqt
 OpenBabel03012623503D

 21 24  0  0  1  0  0  0  0  0999 V2000
   18.7490   67.9520    6.8570 C   0  0  0  0  0  3  0  0  0  0  0  0
   19.6620   68.4560    6.0200 C   0  0  0  0  0  3  0  0  0  0  0  0
   18.7750   68.2660    8.1840 N   0  0  0  0  0  0  0  0  0  0  0  0
   19.0770   67.3850    9.1910 C   0  0  0  0  0  0  0  0  0  0  0  0
   19.3330   66.1970    9.0790 O   0  0  0  0  0  0  0  0  0  0  0  0
   18.6080   69.2180    8.4770 H   0  0  0  0  0  0  0  0  0  0  0  0
   19.0440   68.2350   10.7180 S   0  0  0  0  0  0  0  0  0  0  0  0
   20.3550   69.4310   10.4020 C   0  0  0  0  0  1  0  0  0  0  0  0
   19.7570   68.1000    4.5740 C   0  0  0  0  0  2  0  0  0  0  0  0
   18.4590   68.4420    3.8510 C   0  0  1  0  0  3  0  0  0  0  0  0
   17.8030   69.6570    3.5650 C   0  0  2  0  0  0  0  0  0  0  0  0
   18.0400   68.1040    2.3800 C   0  0  2  0  0  0  0  0  0  0  0  0
   18.3440   70.3420    2.3130 C   0  0  0  0  0  2  0  0  0  0  0  0
   16.6300   68.5600    3.0210 C   0  0  1  0  0  3  0  0  0  0  0  0
   18.5850   69.2550    1.5600 C   0  0  0  0  0  2  0  0  0  0  0  0
   15.8210   67.8380    4.2020 C   0  0  0  0  0  0  0  0  0  0  0  0
   15.4140   66.4910    4.0800 C   0  0  0  0  0  3  0  0  0  0  0  0
   15.5120   68.4680    5.4230 C   0  0  0  0  0  3  0  0  0  0  0  0
   14.7340   65.8160    5.1010 C   0  0  0  0  0  3  0  0  0  0  0  0
   14.8300   67.7990    6.4510 C   0  0  0  0  0  3  0  0  0  0  0  0
   14.4400   66.4730    6.2880 C   0  0  0  0  0  3  0  0  0  0  0  0
  1  3  1  0  0  0  0
  2  1  2  0  0  0  0
  3  6  1  0  0  0  0
  3  4  1  0  0  0  0
  4  7  1  0  0  0  0
  5  4  2  0  0  0  0
  8  7  1  0  0  0  0
  9  2  1  0  0  0  0
 10  9  1  6  0  0  0
 11 13  1  1  0  0  0
 11 10  1  0  0  0  0
 12 15  1  6  0  0  0
 12 14  1  0  0  0  0
 12 11  1  0  0  0  0
 12 10  1  0  0  0  0
 14 11  1  0  0  0  0
 14 16  1  1  0  0  0
 15 13  1  0  0  0  0
 16 18  1  0  0  0  0
 17 16  2  0  0  0  0
 17 19  1  0  0  0  0
 18 20  2  0  0  0  0
 19 21  2  0  0  0  0
 21 20  1  0  0  0  0
M  END
>  <MODEL>
3

>  <REMARK>
 VINA RESULT:    -8.348      3.612      5.240
 INTER + INTRA:         -11.130
 INTER:                 -10.434
 INTRA:                  -0.697
 UNBOUND:                -0.342
 SMILES CSC(=O)N/C=C/CC1=C2C=C[C@@H]1[C@H]2c1ccccc1
 SMILES IDX 6 1 7 2 5 3 3 4 4 5 2 7 1 8 8 9 9 10 10 11 13 12 11 13 14 14
 SMILES IDX 12 15 15 16 16 17 20 18 17 19 19 20 18 21
 H PARENT 5 6

>  <TORSDO>
F 5

$$$$
research/ai4chem/closed_loop/ipf_cycle1/docking_1vjy/cand_0010_dock.pdbqt
 OpenBabel03012623503D

 21 24  0  0  1  0  0  0  0  0999 V2000
   18.8060   67.9780    6.8660 C   0  0  0  0  0  3  0  0  0  0  0  0
   19.7170   68.4590    6.0140 C   0  0  0  0  0  3  0  0  0  0  0  0
   18.8660   68.2830    8.1940 N   0  0  0  0  0  0  0  0  0  0  0  0
   19.1400   67.3840    9.1920 C   0  0  0  0  0  0  0  0  0  0  0  0
   19.3400   66.1860    9.0710 O   0  0  0  0  0  0  0  0  0  0  0  0
   18.7470   69.2410    8.4940 H   0  0  0  0  0  0  0  0  0  0  0  0
   19.1690   68.2270   10.7240 S   0  0  0  0  0  0  0  0  0  0  0  0
   20.4240   69.4630   10.3400 C   0  0  0  0  0  1  0  0  0  0  0  0
   19.7750   68.1080    4.5650 C   0  0  0  0  0  2  0  0  0  0  0  0
   18.4610   68.4590    3.8760 C   0  0  1  0  0  3  0  0  0  0  0  0
   17.7880   69.6750    3.6380 C   0  0  2  0  0  0  0  0  0  0  0  0
   18.0190   68.1620    2.4020 C   0  0  2  0  0  0  0  0  0  0  0  0
   18.3000   70.4040    2.4000 C   0  0  0  0  0  2  0  0  0  0  0  0
   16.6170   68.5840    3.0820 C   0  0  1  0  0  3  0  0  0  0  0  0
   18.5380   69.3440    1.6090 C   0  0  0  0  0  2  0  0  0  0  0  0
   15.8350   67.8170    4.2540 C   0  0  0  0  0  0  0  0  0  0  0  0
   15.5200   68.4760    5.4630 C   0  0  0  0  0  3  0  0  0  0  0  0
   15.3830   66.4880    4.1380 C   0  0  0  0  0  3  0  0  0  0  0  0
   14.8110   67.8500    6.4960 C   0  0  0  0  0  3  0  0  0  0  0  0
   14.6740   65.8540    5.1690 C   0  0  0  0  0  3  0  0  0  0  0  0
   14.3890   66.5360    6.3480 C   0  0  0  0  0  3  0  0  0  0  0  0
  1  3  1  0  0  0  0
  2  1  2  0  0  0  0
  3  6  1  0  0  0  0
  3  4  1  0  0  0  0
  4  7  1  0  0  0  0
  5  4  2  0  0  0  0
  8  7  1  0  0  0  0
  9  2  1  0  0  0  0
 10  9  1  6  0  0  0
 11 13  1  1  0  0  0
 11 10  1  0  0  0  0
 12 15  1  6  0  0  0
 12 14  1  0  0  0  0
 12 11  1  0  0  0  0
 12 10  1  0  0  0  0
 14 11  1  0  0  0  0
 14 16  1  1  0  0  0
 15 13  1  0  0  0  0
 16 17  1  0  0  0  0
 17 19  2  0  0  0  0
 18 16  2  0  0  0  0
 18 20  1  0  0  0  0
 20 21  2  0  0  0  0
 21 19  1  0  0  0  0
M  END
>  <MODEL>
4

>  <REMARK>
 VINA RESULT:    -8.321      3.613      5.171
 INTER + INTRA:         -11.095
 INTER:                 -10.423
 INTRA:                  -0.672
 UNBOUND:                -0.342
 SMILES CSC(=O)N/C=C/CC1=C2C=C[C@@H]1[C@H]2c1ccccc1
 SMILES IDX 6 1 7 2 5 3 3 4 4 5 2 7 1 8 8 9 9 10 10 11 13 12 11 13 14 14
 SMILES IDX 12 15 15 16 16 17 20 18 17 19 19 20 18 21
 H PARENT 5 6

>  <TORSDO>
F 5

$$$$
research/ai4chem/closed_loop/ipf_cycle1/docking_1vjy/cand_0010_dock.pdbqt
 OpenBabel03012623503D

 21 24  0  0  1  0  0  0  0  0999 V2000
   14.4150   67.2790    6.9570 C   0  0  0  0  0  3  0  0  0  0  0  0
   15.2260   68.0130    6.1870 C   0  0  0  0  0  3  0  0  0  0  0  0
   13.6550   66.2840    6.4160 N   0  0  0  0  0  0  0  0  0  0  0  0
   12.2920   66.1910    6.5290 C   0  0  0  0  0  0  0  0  0  0  0  0
   11.5500   66.9420    7.1420 O   0  0  0  0  0  0  0  0  0  0  0  0
   14.0930   65.5720    5.8480 H   0  0  0  0  0  0  0  0  0  0  0  0
   11.7410   64.7940    5.6340 S   0  0  0  0  0  0  0  0  0  0  0  0
   13.0670   64.7010    4.4160 C   0  0  0  0  0  1  0  0  0  0  0  0
   16.0250   69.1720    6.6820 C   0  0  0  0  0  2  0  0  0  0  0  0
   17.5140   68.9350    6.4480 C   0  0  1  0  0  3  0  0  0  0  0  0
   18.6780   69.6080    6.8710 C   0  0  2  0  0  0  0  0  0  0  0  0
   18.3680   67.6670    6.7890 C   0  0  2  0  0  0  0  0  0  0  0  0
   19.1250   69.1960    8.2710 C   0  0  0  0  0  2  0  0  0  0  0  0
   19.3670   68.4770    5.8140 C   0  0  1  0  0  3  0  0  0  0  0  0
   18.8150   67.8890    8.2200 C   0  0  0  0  0  2  0  0  0  0  0  0
   19.1440   68.8190    4.2620 C   0  0  0  0  0  0  0  0  0  0  0  0
   17.9790   68.3920    3.5880 C   0  0  0  0  0  3  0  0  0  0  0  0
   20.0490   69.5880    3.5050 C   0  0  0  0  0  3  0  0  0  0  0  0
   17.7340   68.6980    2.2450 C   0  0  0  0  0  3  0  0  0  0  0  0
   19.8120   69.8980    2.1570 C   0  0  0  0  0  3  0  0  0  0  0  0
   18.6540   69.4510    1.5280 C   0  0  0  0  0  3  0  0  0  0  0  0
  2  9  1  0  0  0  0
  2  1  2  0  0  0  0
  3  4  1  0  0  0  0
  3  1  1  0  0  0  0
  4  5  2  0  0  0  0
  6  3  1  0  0  0  0
  7  4  1  0  0  0  0
  8  7  1  0  0  0  0
 10  9  1  1  0  0  0
 10 12  1  0  0  0  0
 10 11  1  0  0  0  0
 11 13  1  1  0  0  0
 12 11  1  0  0  0  0
 12 15  1  1  0  0  0
 14 16  1  6  0  0  0
 14 12  1  0  0  0  0
 14 11  1  0  0  0  0
 15 13  1  0  0  0  0
 17 16  1  0  0  0  0
 18 16  2  0  0  0  0
 19 17  2  0  0  0  0
 20 18  1  0  0  0  0
 21 20  2  0  0  0  0
 21 19  1  0  0  0  0
M  END
>  <MODEL>
5

>  <REMARK>
 VINA RESULT:    -8.277      4.087      6.979
 INTER + INTRA:         -11.038
 INTER:                 -10.505
 INTRA:                  -0.533
 UNBOUND:                -0.342
 SMILES CSC(=O)N/C=C/CC1=C2C=C[C@@H]1[C@H]2c1ccccc1
 SMILES IDX 6 1 7 2 5 3 3 4 4 5 2 7 1 8 8 9 9 10 10 11 13 12 11 13 14 14
 SMILES IDX 12 15 15 16 16 17 20 18 17 19 19 20 18 21
 H PARENT 5 6

>  <TORSDO>
F 5

$$$$
research/ai4chem/closed_loop/ipf_cycle1/docking_1vjy/cand_0010_dock.pdbqt
 OpenBabel03012623503D

 21 24  0  0  1  0  0  0  0  0999 V2000
   14.7640   67.0640    6.7420 C   0  0  0  0  0  3  0  0  0  0  0  0
   15.1150   68.2600    6.2570 C   0  0  0  0  0  3  0  0  0  0  0  0
   13.8410   66.2950    6.0970 N   0  0  0  0  0  0  0  0  0  0  0  0
   14.1120   65.4810    5.0270 C   0  0  0  0  0  0  0  0  0  0  0  0
   15.1850   65.3360    4.4640 O   0  0  0  0  0  0  0  0  0  0  0  0
   12.8890   66.2660    6.4340 H   0  0  0  0  0  0  0  0  0  0  0  0
   12.6480   64.6460    4.5640 S   0  0  0  0  0  0  0  0  0  0  0  0
   11.6850   64.9150    6.0640 C   0  0  0  0  0  1  0  0  0  0  0  0
   16.0500   69.1990    6.9420 C   0  0  0  0  0  2  0  0  0  0  0  0
   17.4910   68.9160    6.5300 C   0  0  1  0  0  3  0  0  0  0  0  0
   18.7210   69.5400    6.8250 C   0  0  2  0  0  0  0  0  0  0  0  0
   18.3330   67.6130    6.7440 C   0  0  2  0  0  0  0  0  0  0  0  0
   19.3140   69.0810    8.1540 C   0  0  0  0  0  2  0  0  0  0  0  0
   19.2390   68.4100    5.6730 C   0  0  1  0  0  3  0  0  0  0  0  0
   18.9530   67.7870    8.1160 C   0  0  0  0  0  2  0  0  0  0  0  0
   18.8490   68.7950    4.1650 C   0  0  0  0  0  0  0  0  0  0  0  0
   19.7280   69.5560    3.3630 C   0  0  0  0  0  3  0  0  0  0  0  0
   17.6570   68.3720    3.5450 C   0  0  0  0  0  3  0  0  0  0  0  0
   19.4370   69.8840    2.0340 C   0  0  0  0  0  3  0  0  0  0  0  0
   17.3580   68.6980    2.2140 C   0  0  0  0  0  3  0  0  0  0  0  0
   18.2490   69.4550    1.4590 C   0  0  0  0  0  3  0  0  0  0  0  0
  2  1  2  0  0  0  0
  2  9  1  0  0  0  0
  3  6  1  0  0  0  0
  3  1  1  0  0  0  0
  4  3  1  0  0  0  0
  5  4  2  0  0  0  0
  7  4  1  0  0  0  0
  7  8  1  0  0  0  0
 10 12  1  0  0  0  0
 10 11  1  0  0  0  0
 10  9  1  1  0  0  0
 11 13  1  1  0  0  0
 12 11  1  0  0  0  0
 12 15  1  1  0  0  0
 14 16  1  6  0  0  0
 14 12  1  0  0  0  0
 14 11  1  0  0  0  0
 15 13  1  0  0  0  0
 17 16  2  0  0  0  0
 18 16  1  0  0  0  0
 19 17  1  0  0  0  0
 20 18  2  0  0  0  0
 21 19  2  0  0  0  0
 21 20  1  0  0  0  0
M  END
>  <MODEL>
6

>  <REMARK>
 VINA RESULT:    -8.153      3.574      6.692
 INTER + INTRA:         -10.878
 INTER:                 -10.242
 INTRA:                  -0.637
 UNBOUND:                -0.342
 SMILES CSC(=O)N/C=C/CC1=C2C=C[C@@H]1[C@H]2c1ccccc1
 SMILES IDX 6 1 7 2 5 3 3 4 4 5 2 7 1 8 8 9 9 10 10 11 13 12 11 13 14 14
 SMILES IDX 12 15 15 16 16 17 20 18 17 19 19 20 18 21
 H PARENT 5 6

>  <TORSDO>
F 5

$$$$
research/ai4chem/closed_loop/ipf_cycle1/docking_1vjy/cand_0010_dock.pdbqt
 OpenBabel03012623503D

 21 24  0  0  1  0  0  0  0  0999 V2000
   15.1960   67.9890    5.8980 C   0  0  0  0  0  3  0  0  0  0  0  0
   15.8880   68.2100    7.0200 C   0  0  0  0  0  3  0  0  0  0  0  0
   14.3900   66.8960    5.7810 N   0  0  0  0  0  0  0  0  0  0  0  0
   14.1640   66.2120    4.6140 C   0  0  0  0  0  0  0  0  0  0  0  0
   14.6040   66.4760    3.5070 O   0  0  0  0  0  0  0  0  0  0  0  0
   13.9480   66.5090    6.6030 H   0  0  0  0  0  0  0  0  0  0  0  0
   13.1170   64.8510    4.9470 S   0  0  0  0  0  0  0  0  0  0  0  0
   13.3940   63.9090    3.4360 C   0  0  0  0  0  1  0  0  0  0  0  0
   16.8540   69.3330    7.2000 C   0  0  0  0  0  2  0  0  0  0  0  0
   18.2080   68.9780    6.5960 C   0  0  1  0  0  3  0  0  0  0  0  0
   19.4930   69.5510    6.6980 C   0  0  2  0  0  0  0  0  0  0  0  0
   19.0160   67.6420    6.7220 C   0  0  2  0  0  0  0  0  0  0  0  0
   20.2500   69.0910    7.9400 C   0  0  0  0  0  2  0  0  0  0  0  0
   19.7930   68.3770    5.5130 C   0  0  1  0  0  3  0  0  0  0  0  0
   19.8320   67.8140    7.9870 C   0  0  0  0  0  2  0  0  0  0  0  0
   19.2090   68.7500    4.0660 C   0  0  0  0  0  0  0  0  0  0  0  0
   17.9370   68.2880    3.6610 C   0  0  0  0  0  3  0  0  0  0  0  0
   19.8860   69.5780    3.1510 C   0  0  0  0  0  3  0  0  0  0  0  0
   17.3790   68.6190    2.4200 C   0  0  0  0  0  3  0  0  0  0  0  0
   19.3350   69.9120    1.9050 C   0  0  0  0  0  3  0  0  0  0  0  0
   18.0810   69.4310    1.5400 C   0  0  0  0  0  3  0  0  0  0  0  0
  1  2  2  0  0  0  0
  2  9  1  0  0  0  0
  3  1  1  0  0  0  0
  3  6  1  0  0  0  0
  4  7  1  0  0  0  0
  4  3  1  0  0  0  0
  5  4  2  0  0  0  0
  8  7  1  0  0  0  0
 10 11  1  0  0  0  0
 10 12  1  0  0  0  0
 10  9  1  1  0  0  0
 11 12  1  0  0  0  0
 11 13  1  1  0  0  0
 12 15  1  1  0  0  0
 13 15  1  0  0  0  0
 14 16  1  6  0  0  0
 14 11  1  0  0  0  0
 14 12  1  0  0  0  0
 17 16  1  0  0  0  0
 18 16  2  0  0  0  0
 19 17  2  0  0  0  0
 20 18  1  0  0  0  0
 21 20  2  0  0  0  0
 21 19  1  0  0  0  0
M  END
>  <MODEL>
7

>  <REMARK>
 VINA RESULT:    -8.057      3.514      6.490
 INTER + INTRA:         -10.754
 INTER:                 -10.058
 INTRA:                  -0.696
 UNBOUND:                -0.342
 SMILES CSC(=O)N/C=C/CC1=C2C=C[C@@H]1[C@H]2c1ccccc1
 SMILES IDX 6 1 7 2 5 3 3 4 4 5 2 7 1 8 8 9 9 10 10 11 13 12 11 13 14 14
 SMILES IDX 12 15 15 16 16 17 20 18 17 19 19 20 18 21
 H PARENT 5 6

>  <TORSDO>
F 5

$$$$
research/ai4chem/closed_loop/ipf_cycle1/docking_1vjy/cand_0010_dock.pdbqt
 OpenBabel03012623503D

 21 24  0  0  1  0  0  0  0  0999 V2000
   18.8340   69.9590    7.1830 C   0  0  0  0  0  3  0  0  0  0  0  0
   17.7300   69.7630    7.9130 C   0  0  0  0  0  3  0  0  0  0  0  0
   20.0600   70.0100    7.7770 N   0  0  0  0  0  0  0  0  0  0  0  0
   21.1780   70.5730    7.2170 C   0  0  0  0  0  0  0  0  0  0  0  0
   21.2730   71.0800    6.1100 O   0  0  0  0  0  0  0  0  0  0  0  0
   20.1780   69.6560    8.7160 H   0  0  0  0  0  0  0  0  0  0  0  0
   22.5010   70.4620    8.3540 S   0  0  0  0  0  0  0  0  0  0  0  0
   21.6130   70.8970    9.8610 C   0  0  0  0  0  1  0  0  0  0  0  0
   16.3460   69.7770    7.3560 C   0  0  0  0  0  2  0  0  0  0  0  0
   16.2090   68.7540    6.2340 C   0  0  1  0  0  3  0  0  0  0  0  0
   16.4920   67.3750    6.1420 C   0  0  2  0  0  0  0  0  0  0  0  0
   14.9220   68.3350    5.4440 C   0  0  2  0  0  0  0  0  0  0  0  0
   15.3660   66.5020    6.6880 C   0  0  0  0  0  2  0  0  0  0  0  0
   16.0880   67.6950    4.5280 C   0  0  1  0  0  3  0  0  0  0  0  0
   14.3120   67.2280    6.2800 C   0  0  0  0  0  2  0  0  0  0  0  0
   17.2280   68.4800    3.7170 C   0  0  0  0  0  0  0  0  0  0  0  0
   16.8950   69.3040    2.6190 C   0  0  0  0  0  3  0  0  0  0  0  0
   18.5910   68.4370    4.0660 C   0  0  0  0  0  3  0  0  0  0  0  0
   17.8570   70.0300    1.9070 C   0  0  0  0  0  3  0  0  0  0  0  0
   19.5620   69.1600    3.3560 C   0  0  0  0  0  3  0  0  0  0  0  0
   19.1930   69.9560    2.2760 C   0  0  0  0  0  3  0  0  0  0  0  0
  1  3  1  0  0  0  0
  1  2  2  0  0  0  0
  3  6  1  0  0  0  0
  4  3  1  0  0  0  0
  4  7  1  0  0  0  0
  5  4  2  0  0  0  0
  7  8  1  0  0  0  0
  9  2  1  0  0  0  0
 10  9  1  1  0  0  0
 11 10  1  0  0  0  0
 11 13  1  1  0  0  0
 12 11  1  0  0  0  0
 12 10  1  0  0  0  0
 12 15  1  1  0  0  0
 14 16  1  1  0  0  0
 14 12  1  0  0  0  0
 14 11  1  0  0  0  0
 15 13  1  0  0  0  0
 16 18  1  0  0  0  0
 17 16  2  0  0  0  0
 19 21  2  0  0  0  0
 19 17  1  0  0  0  0
 20 18  2  0  0  0  0
 21 20  1  0  0  0  0
M  END
>  <MODEL>
8

>  <REMARK>
 VINA RESULT:    -7.956      3.077      5.409
 INTER + INTRA:         -10.624
 INTER:                 -10.109
 INTRA:                  -0.515
 UNBOUND:                -0.342
 SMILES CSC(=O)N/C=C/CC1=C2C=C[C@@H]1[C@H]2c1ccccc1
 SMILES IDX 6 1 7 2 5 3 3 4 4 5 2 7 1 8 8 9 9 10 10 11 13 12 11 13 14 14
 SMILES IDX 12 15 15 16 16 17 20 18 17 19 19 20 18 21
 H PARENT 5 6

>  <TORSDO>
F 5

$$$$
research/ai4chem/closed_loop/ipf_cycle1/docking_1vjy/cand_0010_dock.pdbqt
 OpenBabel03012623503D

 21 24  0  0  1  0  0  0  0  0999 V2000
   17.8670   68.8780    8.9370 C   0  0  0  0  0  3  0  0  0  0  0  0
   17.5550   69.6100    7.8630 C   0  0  0  0  0  3  0  0  0  0  0  0
   19.1440   68.8520    9.4140 N   0  0  0  0  0  0  0  0  0  0  0  0
   19.8910   67.7150    9.5900 C   0  0  0  0  0  0  0  0  0  0  0  0
   19.5400   66.5640    9.3880 O   0  0  0  0  0  0  0  0  0  0  0  0
   19.6200   69.7190    9.6210 H   0  0  0  0  0  0  0  0  0  0  0  0
   21.4800   68.1630   10.1650 S   0  0  0  0  0  0  0  0  0  0  0  0
   21.0710   69.7510   10.9130 C   0  0  0  0  0  1  0  0  0  0  0  0
   16.2060   69.6290    7.2270 C   0  0  0  0  0  2  0  0  0  0  0  0
   16.1470   68.6460    6.0620 C   0  0  1  0  0  3  0  0  0  0  0  0
   16.4670   67.2780    5.9350 C   0  0  2  0  0  0  0  0  0  0  0  0
   14.9120   68.2300    5.1940 C   0  0  2  0  0  0  0  0  0  0  0  0
   15.3360   66.3610    6.3920 C   0  0  0  0  0  2  0  0  0  0  0  0
   16.1360   67.6500    4.3150 C   0  0  1  0  0  3  0  0  0  0  0  0
   14.2860   67.0800    5.9570 C   0  0  0  0  0  2  0  0  0  0  0  0
   17.2950   68.4890    3.5910 C   0  0  0  0  0  0  0  0  0  0  0  0
   16.9920   69.3790    2.5380 C   0  0  0  0  0  3  0  0  0  0  0  0
   18.6470   68.4290    3.9800 C   0  0  0  0  0  3  0  0  0  0  0  0
   17.9720   70.1520    1.9030 C   0  0  0  0  0  3  0  0  0  0  0  0
   19.6350   69.1990    3.3480 C   0  0  0  0  0  3  0  0  0  0  0  0
   19.2970   70.0600    2.3090 C   0  0  0  0  0  3  0  0  0  0  0  0
  1  3  1  0  0  0  0
  2  1  2  0  0  0  0
  3  4  1  0  0  0  0
  3  6  1  0  0  0  0
  4  7  1  0  0  0  0
  5  4  2  0  0  0  0
  7  8  1  0  0  0  0
  9  2  1  0  0  0  0
 10  9  1  1  0  0  0
 11 10  1  0  0  0  0
 11 13  1  1  0  0  0
 12 11  1  0  0  0  0
 12 15  1  1  0  0  0
 12 10  1  0  0  0  0
 14 16  1  1  0  0  0
 14 12  1  0  0  0  0
 14 11  1  0  0  0  0
 15 13  1  0  0  0  0
 16 18  1  0  0  0  0
 17 16  2  0  0  0  0
 19 21  2  0  0  0  0
 19 17  1  0  0  0  0
 20 18  2  0  0  0  0
 21 20  1  0  0  0  0
M  END
>  <MODEL>
9

>  <REMARK>
 VINA RESULT:    -7.927      3.702      6.097
 INTER + INTRA:         -10.586
 INTER:                 -10.059
 INTRA:                  -0.527
 UNBOUND:                -0.342
 SMILES CSC(=O)N/C=C/CC1=C2C=C[C@@H]1[C@H]2c1ccccc1
 SMILES IDX 6 1 7 2 5 3 3 4 4 5 2 7 1 8 8 9 9 10 10 11 13 12 11 13 14 14
 SMILES IDX 12 15 15 16 16 17 20 18 17 19 19 20 18 21
 H PARENT 5 6

>  <TORSDO>
F 5

$$$$
research/ai4chem/closed_loop/ipf_cycle1/docking_1vjy/cand_0010_dock.pdbqt
 OpenBabel03012623503D

 21 24  0  0  1  0  0  0  0  0999 V2000
   15.6020   67.0400    5.2500 C   0  0  0  0  0  3  0  0  0  0  0  0
   16.4330   67.5020    4.3110 C   0  0  0  0  0  3  0  0  0  0  0  0
   14.6680   66.0930    4.9480 N   0  0  0  0  0  0  0  0  0  0  0  0
   13.5540   65.8240    5.7010 C   0  0  0  0  0  0  0  0  0  0  0  0
   13.2340   66.3460    6.7570 O   0  0  0  0  0  0  0  0  0  0  0  0
   14.7500   65.5640    4.0910 H   0  0  0  0  0  0  0  0  0  0  0  0
   12.6170   64.5800    4.9060 S   0  0  0  0  0  0  0  0  0  0  0  0
   11.0440   64.8330    5.7480 C   0  0  0  0  0  1  0  0  0  0  0  0
   17.4250   68.5940    4.5360 C   0  0  0  0  0  2  0  0  0  0  0  0
   17.9910   69.0860    3.2080 C   0  0  1  0  0  3  0  0  0  0  0  0
   18.0610   68.5200    1.9180 C   0  0  2  0  0  0  0  0  0  0  0  0
   17.6150   70.3750    2.4010 C   0  0  2  0  0  0  0  0  0  0  0  0
   16.7780   68.7150    1.1150 C   0  0  0  0  0  2  0  0  0  0  0  0
   18.9810   69.9220    1.6690 C   0  0  1  0  0  3  0  0  0  0  0  0
   16.4470   69.9480    1.5350 C   0  0  0  0  0  2  0  0  0  0  0  0
   20.4500   69.8560    2.3090 C   0  0  0  0  0  0  0  0  0  0  0  0
   21.5960   69.8310    1.4840 C   0  0  0  0  0  3  0  0  0  0  0  0
   20.6870   69.8670    3.6970 C   0  0  0  0  0  3  0  0  0  0  0  0
   22.8950   69.8070    2.0050 C   0  0  0  0  0  3  0  0  0  0  0  0
   21.9860   69.8400    4.2270 C   0  0  0  0  0  3  0  0  0  0  0  0
   23.0900   69.8100    3.3800 C   0  0  0  0  0  3  0  0  0  0  0  0
  2  9  1  0  0  0  0
  2  1  2  0  0  0  0
  3  1  1  0  0  0  0
  3  4  1  0  0  0  0
  4  5  2  0  0  0  0
  6  3  1  0  0  0  0
  7  4  1  0  0  0  0
  7  8  1  0  0  0  0
 10  9  1  1  0  0  0
 11 13  1  6  0  0  0
 11 12  1  0  0  0  0
 11 10  1  0  0  0  0
 12 15  1  6  0  0  0
 12 10  1  0  0  0  0
 13 15  1  0  0  0  0
 14 11  1  0  0  0  0
 14 16  1  1  0  0  0
 14 12  1  0  0  0  0
 16 18  1  0  0  0  0
 17 19  1  0  0  0  0
 17 16  2  0  0  0  0
 18 20  2  0  0  0  0
 19 21  2  0  0  0  0
 21 20  1  0  0  0  0
M  END
>  <MODEL>
10

>  <REMARK>
 VINA RESULT:    -7.713      3.627      7.957
 INTER + INTRA:         -10.310
 INTER:                 -10.379
 INTRA:                   0.069
 UNBOUND:                -0.342
 SMILES CSC(=O)N/C=C/CC1=C2C=C[C@@H]1[C@H]2c1ccccc1
 SMILES IDX 6 1 7 2 5 3 3 4 4 5 2 7 1 8 8 9 9 10 10 11 13 12 11 13 14 14
 SMILES IDX 12 15 15 16 16 17 20 18 17 19 19 20 18 21
 H PARENT 5 6

>  <TORSDO>
F 5

$$$$
research/ai4chem/closed_loop/ipf_cycle1/docking_1vjy/cand_0010_dock.pdbqt
 OpenBabel03012623503D

 21 24  0  0  1  0  0  0  0  0999 V2000
   18.3310   69.7410    4.1600 C   0  0  0  0  0  3  0  0  0  0  0  0
   17.9070   68.5050    3.8770 C   0  0  0  0  0  3  0  0  0  0  0  0
   19.6260   69.9660    4.5230 N   0  0  0  0  0  0  0  0  0  0  0  0
   20.0570   70.1470    5.8120 C   0  0  0  0  0  0  0  0  0  0  0  0
   19.3730   70.1720    6.8220 O   0  0  0  0  0  0  0  0  0  0  0  0
   20.3520   69.9610    3.8200 H   0  0  0  0  0  0  0  0  0  0  0  0
   21.7950   70.3450    5.8080 S   0  0  0  0  0  0  0  0  0  0  0  0
   22.0430   70.6730    7.5630 C   0  0  0  0  0  1  0  0  0  0  0  0
   16.4920   68.1600    3.5540 C   0  0  0  0  0  2  0  0  0  0  0  0
   15.7760   67.6230    4.7890 C   0  0  1  0  0  3  0  0  0  0  0  0
   16.2250   67.0140    5.9790 C   0  0  2  0  0  0  0  0  0  0  0  0
   14.8260   68.3830    5.7760 C   0  0  2  0  0  0  0  0  0  0  0  0
   16.6710   68.0260    7.0300 C   0  0  0  0  0  2  0  0  0  0  0  0
   14.5510   66.8450    6.1810 C   0  0  1  0  0  3  0  0  0  0  0  0
   15.7590   68.9870    6.8050 C   0  0  0  0  0  2  0  0  0  0  0  0
   13.8990   65.7000    5.2660 C   0  0  0  0  0  0  0  0  0  0  0  0
   12.5400   65.3430    5.4140 C   0  0  0  0  0  3  0  0  0  0  0  0
   14.6080   65.0280    4.2510 C   0  0  0  0  0  3  0  0  0  0  0  0
   11.9280   64.3730    4.6120 C   0  0  0  0  0  3  0  0  0  0  0  0
   14.0010   64.0530    3.4450 C   0  0  0  0  0  3  0  0  0  0  0  0
   12.6610   63.7250    3.6270 C   0  0  0  0  0  3  0  0  0  0  0  0
  1  3  1  0  0  0  0
  2  1  2  0  0  0  0
  3  4  1  0  0  0  0
  4  5  2  0  0  0  0
  6  3  1  0  0  0  0
  7  4  1  0  0  0  0
  7  8  1  0  0  0  0
  9  2  1  0  0  0  0
 10  9  1  1  0  0  0
 10 12  1  0  0  0  0
 10 11  1  0  0  0  0
 11 14  1  0  0  0  0
 11 13  1  1  0  0  0
 12 11  1  0  0  0  0
 12 14  1  0  0  0  0
 12 15  1  1  0  0  0
 14 16  1  6  0  0  0
 15 13  1  0  0  0  0
 16 17  1  0  0  0  0
 18 16  2  0  0  0  0
 19 17  2  0  0  0  0
 20 21  2  0  0  0  0
 20 18  1  0  0  0  0
 21 19  1  0  0  0  0
M  END
>  <MODEL>
11

>  <REMARK>
 VINA RESULT:    -7.583      2.081      2.088
 INTER + INTRA:         -10.141
 INTER:                 -10.218
 INTRA:                   0.077
 UNBOUND:                -0.342
 SMILES CSC(=O)N/C=C/CC1=C2C=C[C@@H]1[C@H]2c1ccccc1
 SMILES IDX 6 1 7 2 5 3 3 4 4 5 2 7 1 8 8 9 9 10 10 11 13 12 11 13 14 14
 SMILES IDX 12 15 15 16 16 17 20 18 17 19 19 20 18 21
 H PARENT 5 6

>  <TORSDO>
F 5

$$$$
research/ai4chem/closed_loop/ipf_cycle1/docking_1vjy/cand_0010_dock.pdbqt
 OpenBabel03012623503D

 21 24  0  0  1  0  0  0  0  0999 V2000
   20.4510   69.0300    5.1320 C   0  0  0  0  0  3  0  0  0  0  0  0
   20.2250   67.7800    5.5500 C   0  0  0  0  0  3  0  0  0  0  0  0
   20.6270   69.2990    3.8070 N   0  0  0  0  0  0  0  0  0  0  0  0
   21.8060   69.7110    3.2420 C   0  0  0  0  0  0  0  0  0  0  0  0
   22.8610   69.9330    3.8160 O   0  0  0  0  0  0  0  0  0  0  0  0
   19.8640   69.1530    3.1600 H   0  0  0  0  0  0  0  0  0  0  0  0
   21.5820   69.8780    1.5160 S   0  0  0  0  0  0  0  0  0  0  0  0
   19.7820   69.8000    1.4590 C   0  0  0  0  0  1  0  0  0  0  0  0
   20.1050   67.3860    6.9840 C   0  0  0  0  0  2  0  0  0  0  0  0
   18.7160   67.7200    7.5180 C   0  0  1  0  0  3  0  0  0  0  0  0
   17.9210   67.1790    8.5490 C   0  0  2  0  0  0  0  0  0  0  0  0
   18.1920   69.0760    8.1010 C   0  0  2  0  0  0  0  0  0  0  0  0
   18.2700   67.7420    9.9240 C   0  0  0  0  0  2  0  0  0  0  0  0
   16.8130   68.2680    7.8710 C   0  0  1  0  0  3  0  0  0  0  0  0
   18.5410   69.0110    9.5740 C   0  0  0  0  0  2  0  0  0  0  0  0
   16.1950   67.7790    6.4740 C   0  0  0  0  0  0  0  0  0  0  0  0
   15.2690   66.7130    6.4280 C   0  0  0  0  0  3  0  0  0  0  0  0
   16.4910   68.3940    5.2430 C   0  0  0  0  0  3  0  0  0  0  0  0
   14.6830   66.2800    5.2320 C   0  0  0  0  0  3  0  0  0  0  0  0
   15.9100   67.9640    4.0400 C   0  0  0  0  0  3  0  0  0  0  0  0
   15.0060   66.9060    4.0360 C   0  0  0  0  0  3  0  0  0  0  0  0
  1  2  2  0  0  0  0
  2  9  1  0  0  0  0
  3  1  1  0  0  0  0
  4  3  1  0  0  0  0
  4  5  2  0  0  0  0
  6  3  1  0  0  0  0
  7  4  1  0  0  0  0
  8  7  1  0  0  0  0
 10  9  1  1  0  0  0
 10 12  1  0  0  0  0
 10 11  1  0  0  0  0
 11 13  1  1  0  0  0
 12 11  1  0  0  0  0
 12 15  1  1  0  0  0
 14 16  1  6  0  0  0
 14 12  1  0  0  0  0
 14 11  1  0  0  0  0
 15 13  1  0  0  0  0
 17 16  1  0  0  0  0
 18 16  2  0  0  0  0
 19 17  2  0  0  0  0
 20 18  1  0  0  0  0
 21 20  2  0  0  0  0
 21 19  1  0  0  0  0
M  END
>  <MODEL>
12

>  <REMARK>
 VINA RESULT:    -7.573      2.345      3.855
 INTER + INTRA:         -10.129
 INTER:                  -9.259
 INTRA:                  -0.870
 UNBOUND:                -0.342
 SMILES CSC(=O)N/C=C/CC1=C2C=C[C@@H]1[C@H]2c1ccccc1
 SMILES IDX 6 1 7 2 5 3 3 4 4 5 2 7 1 8 8 9 9 10 10 11 13 12 11 13 14 14
 SMILES IDX 12 15 15 16 16 17 20 18 17 19 19 20 18 21
 H PARENT 5 6

>  <TORSDO>
F 5

$$$$
research/ai4chem/closed_loop/ipf_cycle1/docking_1vjy/cand_0010_dock.pdbqt
 OpenBabel03012623503D

 21 24  0  0  1  0  0  0  0  0999 V2000
   21.5030   70.2530    5.3340 C   0  0  0  0  0  3  0  0  0  0  0  0
   21.1490   69.4330    4.3390 C   0  0  0  0  0  3  0  0  0  0  0  0
   22.1690   69.7770    6.4240 N   0  0  0  0  0  0  0  0  0  0  0  0
   21.7400   69.9040    7.7200 C   0  0  0  0  0  0  0  0  0  0  0  0
   20.7360   70.4780    8.1120 O   0  0  0  0  0  0  0  0  0  0  0  0
   23.0210   69.2490    6.3000 H   0  0  0  0  0  0  0  0  0  0  0  0
   22.8750   69.0970    8.7770 S   0  0  0  0  0  0  0  0  0  0  0  0
   21.7040   68.1990    9.8120 C   0  0  0  0  0  1  0  0  0  0  0  0
   20.3480   69.8530    3.1530 C   0  0  0  0  0  2  0  0  0  0  0  0
   18.9060   69.3730    3.2820 C   0  0  1  0  0  3  0  0  0  0  0  0
   17.6580   69.9860    3.0450 C   0  0  2  0  0  0  0  0  0  0  0  0
   18.2140   68.1560    2.5790 C   0  0  2  0  0  0  0  0  0  0  0  0
   17.2420   69.9340    1.5780 C   0  0  0  0  0  2  0  0  0  0  0  0
   17.1380   68.5240    3.7260 C   0  0  1  0  0  3  0  0  0  0  0  0
   17.7160   68.7160    1.2620 C   0  0  0  0  0  2  0  0  0  0  0  0
   17.3430   68.4380    5.3140 C   0  0  0  0  0  0  0  0  0  0  0  0
   16.3370   68.8870    6.1980 C   0  0  0  0  0  3  0  0  0  0  0  0
   18.4890   67.8820    5.9150 C   0  0  0  0  0  3  0  0  0  0  0  0
   16.4660   68.7990    7.5890 C   0  0  0  0  0  3  0  0  0  0  0  0
   18.6270   67.7910    7.3080 C   0  0  0  0  0  3  0  0  0  0  0  0
   17.6140   68.2520    8.1450 C   0  0  0  0  0  3  0  0  0  0  0  0
  1  3  1  0  0  0  0
  2  1  2  0  0  0  0
  3  4  1  0  0  0  0
  4  5  2  0  0  0  0
  4  7  1  0  0  0  0
  6  3  1  0  0  0  0
  7  8  1  0  0  0  0
  9  2  1  0  0  0  0
 10  9  1  6  0  0  0
 11 13  1  6  0  0  0
 11 10  1  0  0  0  0
 11 14  1  0  0  0  0
 12 15  1  6  0  0  0
 12 11  1  0  0  0  0
 12 10  1  0  0  0  0
 12 14  1  0  0  0  0
 14 16  1  1  0  0  0
 15 13  1  0  0  0  0
 16 18  2  0  0  0  0
 16 17  1  0  0  0  0
 17 19  2  0  0  0  0
 18 20  1  0  0  0  0
 19 21  1  0  0  0  0
 20 21  2  0  0  0  0
M  END
>  <MODEL>
13

>  <REMARK>
 VINA RESULT:    -7.573      3.971      5.539
 INTER + INTRA:         -10.128
 INTER:                  -9.368
 INTRA:                  -0.760
 UNBOUND:                -0.342
 SMILES CSC(=O)N/C=C/CC1=C2C=C[C@@H]1[C@H]2c1ccccc1
 SMILES IDX 6 1 7 2 5 3 3 4 4 5 2 7 1 8 8 9 9 10 10 11 13 12 11 13 14 14
 SMILES IDX 12 15 15 16 16 17 20 18 17 19 19 20 18 21
 H PARENT 5 6

>  <TORSDO>
F 5

$$$$
research/ai4chem/closed_loop/ipf_cycle1/docking_1vjy/cand_0010_dock.pdbqt
 OpenBabel03012623503D

 21 24  0  0  1  0  0  0  0  0999 V2000
   16.6620   69.5130    7.9890 C   0  0  0  0  0  3  0  0  0  0  0  0
   15.7500   68.6680    7.4950 C   0  0  0  0  0  3  0  0  0  0  0  0
   17.3400   69.2130    9.1330 N   0  0  0  0  0  0  0  0  0  0  0  0
   18.6250   68.7380    9.1790 C   0  0  0  0  0  0  0  0  0  0  0  0
   19.3490   68.4770    8.2310 O   0  0  0  0  0  0  0  0  0  0  0  0
   16.9090   69.3830   10.0310 H   0  0  0  0  0  0  0  0  0  0  0  0
   19.1040   68.5510   10.8500 S   0  0  0  0  0  0  0  0  0  0  0  0
   20.8080   68.0240   10.5960 C   0  0  0  0  0  1  0  0  0  0  0  0
   14.9050   68.9550    6.2990 C   0  0  0  0  0  2  0  0  0  0  0  0
   15.1620   67.9280    5.2020 C   0  0  1  0  0  3  0  0  0  0  0  0
   15.1530   67.9950    3.7940 C   0  0  2  0  0  0  0  0  0  0  0  0
   16.4450   67.0650    4.9510 C   0  0  2  0  0  0  0  0  0  0  0  0
   16.4670   68.5140    3.2170 C   0  0  0  0  0  2  0  0  0  0  0  0
   15.3670   66.3270    4.0020 C   0  0  1  0  0  3  0  0  0  0  0  0
   17.3230   67.9410    4.0810 C   0  0  0  0  0  2  0  0  0  0  0  0
   14.0380   65.5540    4.4600 C   0  0  0  0  0  0  0  0  0  0  0  0
   13.4930   64.5210    3.6650 C   0  0  0  0  0  3  0  0  0  0  0  0
   13.3730   65.8160    5.6730 C   0  0  0  0  0  3  0  0  0  0  0  0
   12.3530   63.8030    4.0460 C   0  0  0  0  0  3  0  0  0  0  0  0
   12.2290   65.1020    6.0620 C   0  0  0  0  0  3  0  0  0  0  0  0
   11.7200   64.0950    5.2460 C   0  0  0  0  0  3  0  0  0  0  0  0
  1  3  1  0  0  0  0
  2  1  2  0  0  0  0
  3  4  1  0  0  0  0
  3  6  1  0  0  0  0
  4  7  1  0  0  0  0
  5  4  2  0  0  0  0
  8  7  1  0  0  0  0
  9  2  1  0  0  0  0
 10  9  1  1  0  0  0
 11 13  1  6  0  0  0
 11 14  1  0  0  0  0
 11 12  1  0  0  0  0
 11 10  1  0  0  0  0
 12 15  1  1  0  0  0
 12 10  1  0  0  0  0
 13 15  1  0  0  0  0
 14 16  1  1  0  0  0
 14 12  1  0  0  0  0
 16 18  1  0  0  0  0
 17 19  1  0  0  0  0
 17 16  2  0  0  0  0
 18 20  2  0  0  0  0
 19 21  2  0  0  0  0
 21 20  1  0  0  0  0
M  END
>  <MODEL>
14

>  <REMARK>
 VINA RESULT:    -7.551      3.442      4.535
 INTER + INTRA:         -10.101
 INTER:                 -10.021
 INTRA:                  -0.080
 UNBOUND:                -0.342
 SMILES CSC(=O)N/C=C/CC1=C2C=C[C@@H]1[C@H]2c1ccccc1
 SMILES IDX 6 1 7 2 5 3 3 4 4 5 2 7 1 8 8 9 9 10 10 11 13 12 11 13 14 14
 SMILES IDX 12 15 15 16 16 17 20 18 17 19 19 20 18 21
 H PARENT 5 6

>  <TORSDO>
F 5

$$$$
research/ai4chem/closed_loop/ipf_cycle1/docking_1vjy/cand_0010_dock.pdbqt
 OpenBabel03012623503D

 21 24  0  0  1  0  0  0  0  0999 V2000
   14.7370   66.0260    4.2590 C   0  0  0  0  0  3  0  0  0  0  0  0
   14.8700   67.3570    4.2480 C   0  0  0  0  0  3  0  0  0  0  0  0
   13.5380   65.4490    4.5550 N   0  0  0  0  0  0  0  0  0  0  0  0
   12.9630   64.4300    3.8410 C   0  0  0  0  0  0  0  0  0  0  0  0
   13.3960   63.9020    2.8290 O   0  0  0  0  0  0  0  0  0  0  0  0
   13.0320   65.7400    5.3790 H   0  0  0  0  0  0  0  0  0  0  0  0
   11.4640   63.9690    4.6140 S   0  0  0  0  0  0  0  0  0  0  0  0
   11.4890   65.1330    5.9900 C   0  0  0  0  0  1  0  0  0  0  0  0
   16.1610   68.0670    4.0170 C   0  0  0  0  0  2  0  0  0  0  0  0
   16.8680   68.3380    5.3410 C   0  0  1  0  0  3  0  0  0  0  0  0
   16.6370   69.2500    6.3920 C   0  0  2  0  0  0  0  0  0  0  0  0
   17.1330   67.3510    6.5290 C   0  0  2  0  0  0  0  0  0  0  0  0
   15.5860   68.7590    7.3820 C   0  0  0  0  0  2  0  0  0  0  0  0
   18.1060   68.5820    6.9070 C   0  0  1  0  0  3  0  0  0  0  0  0
   15.8860   67.4490    7.3840 C   0  0  0  0  0  2  0  0  0  0  0  0
   19.3810   69.1020    6.0830 C   0  0  0  0  0  0  0  0  0  0  0  0
   19.8500   68.3930    4.9550 C   0  0  0  0  0  3  0  0  0  0  0  0
   20.0660   70.2920    6.3950 C   0  0  0  0  0  3  0  0  0  0  0  0
   20.9380   68.8320    4.1920 C   0  0  0  0  0  3  0  0  0  0  0  0
   21.1590   70.7380    5.6360 C   0  0  0  0  0  3  0  0  0  0  0  0
   21.5950   70.0060    4.5350 C   0  0  0  0  0  3  0  0  0  0  0  0
  1  3  1  0  0  0  0
  2  1  2  0  0  0  0
  3  6  1  0  0  0  0
  4  3  1  0  0  0  0
  4  7  1  0  0  0  0
  5  4  2  0  0  0  0
  7  8  1  0  0  0  0
  9  2  1  0  0  0  0
 10  9  1  1  0  0  0
 10 11  1  0  0  0  0
 10 12  1  0  0  0  0
 11 12  1  0  0  0  0
 11 14  1  0  0  0  0
 11 13  1  1  0  0  0
 12 14  1  0  0  0  0
 12 15  1  1  0  0  0
 13 15  1  0  0  0  0
 14 16  1  6  0  0  0
 16 18  1  0  0  0  0
 17 16  2  0  0  0  0
 19 21  2  0  0  0  0
 19 17  1  0  0  0  0
 20 18  2  0  0  0  0
 21 20  1  0  0  0  0
M  END
>  <MODEL>
15

>  <REMARK>
 VINA RESULT:    -7.501      4.079      7.336
 INTER + INTRA:         -10.036
 INTER:                  -9.865
 INTRA:                  -0.171
 UNBOUND:                -0.342
 SMILES CSC(=O)N/C=C/CC1=C2C=C[C@@H]1[C@H]2c1ccccc1
 SMILES IDX 6 1 7 2 5 3 3 4 4 5 2 7 1 8 8 9 9 10 10 11 13 12 11 13 14 14
 SMILES IDX 12 15 15 16 16 17 20 18 17 19 19 20 18 21
 H PARENT 5 6

>  <TORSDO>
F 5

$$$$
research/ai4chem/closed_loop/ipf_cycle1/docking_1vjy/cand_0010_dock.pdbqt
 OpenBabel03012623503D

 21 24  0  0  1  0  0  0  0  0999 V2000
   20.6390   68.8720    5.1940 C   0  0  0  0  0  3  0  0  0  0  0  0
   20.2160   67.6730    5.6070 C   0  0  0  0  0  3  0  0  0  0  0  0
   20.8780   69.1080    3.8720 N   0  0  0  0  0  0  0  0  0  0  0  0
   20.0140   69.7470    3.0220 C   0  0  0  0  0  0  0  0  0  0  0  0
   18.9000   70.1730    3.2850 O   0  0  0  0  0  0  0  0  0  0  0  0
   21.7660   68.8440    3.4690 H   0  0  0  0  0  0  0  0  0  0  0  0
   20.7570   69.8760    1.4450 S   0  0  0  0  0  0  0  0  0  0  0  0
   22.4800   70.0140    1.9580 C   0  0  0  0  0  1  0  0  0  0  0  0
   20.0110   67.3060    7.0390 C   0  0  0  0  0  2  0  0  0  0  0  0
   18.6210   67.7240    7.5060 C   0  0  1  0  0  3  0  0  0  0  0  0
   17.7800   67.2880    8.5500 C   0  0  2  0  0  0  0  0  0  0  0  0
   18.1300   69.1360    7.9740 C   0  0  2  0  0  0  0  0  0  0  0  0
   18.1120   67.9380    9.8900 C   0  0  0  0  0  2  0  0  0  0  0  0
   16.7300   68.3600    7.7630 C   0  0  1  0  0  3  0  0  0  0  0  0
   18.4370   69.1680    9.4570 C   0  0  0  0  0  2  0  0  0  0  0  0
   16.1320   67.7910    6.3870 C   0  0  0  0  0  0  0  0  0  0  0  0
   15.1700   66.7570    6.3910 C   0  0  0  0  0  3  0  0  0  0  0  0
   16.4840   68.3030    5.1240 C   0  0  0  0  0  3  0  0  0  0  0  0
   14.6020   66.2560    5.2140 C   0  0  0  0  0  3  0  0  0  0  0  0
   15.9200   67.8060    3.9390 C   0  0  0  0  0  3  0  0  0  0  0  0
   14.9800   66.7810    3.9850 C   0  0  0  0  0  3  0  0  0  0  0  0
  1  2  2  0  0  0  0
  2  9  1  0  0  0  0
  3  1  1  0  0  0  0
  4  5  2  0  0  0  0
  4  3  1  0  0  0  0
  6  3  1  0  0  0  0
  7  8  1  0  0  0  0
  7  4  1  0  0  0  0
 10  9  1  1  0  0  0
 10 12  1  0  0  0  0
 10 11  1  0  0  0  0
 11 13  1  1  0  0  0
 12 11  1  0  0  0  0
 12 15  1  1  0  0  0
 14 16  1  6  0  0  0
 14 12  1  0  0  0  0
 14 11  1  0  0  0  0
 15 13  1  0  0  0  0
 16 17  1  0  0  0  0
 18 16  2  0  0  0  0
 19 17  2  0  0  0  0
 20 21  2  0  0  0  0
 20 18  1  0  0  0  0
 21 19  1  0  0  0  0
M  END
>  <MODEL>
16

>  <REMARK>
 VINA RESULT:    -7.488      2.238      3.686
 INTER + INTRA:         -10.019
 INTER:                  -9.110
 INTRA:                  -0.909
 UNBOUND:                -0.342
 SMILES CSC(=O)N/C=C/CC1=C2C=C[C@@H]1[C@H]2c1ccccc1
 SMILES IDX 6 1 7 2 5 3 3 4 4 5 2 7 1 8 8 9 9 10 10 11 13 12 11 13 14 14
 SMILES IDX 12 15 15 16 16 17 20 18 17 19 19 20 18 21
 H PARENT 5 6

>  <TORSDO>
F 5

$$$$
research/ai4chem/closed_loop/ipf_cycle1/docking_1vjy/cand_0010_dock.pdbqt
 OpenBabel03012623503D

 21 24  0  0  1  0  0  0  0  0999 V2000
   17.5980   69.2780    3.5280 C   0  0  0  0  0  3  0  0  0  0  0  0
   16.8130   68.2990    3.0680 C   0  0  0  0  0  3  0  0  0  0  0  0
   18.8640   69.4400    3.0470 N   0  0  0  0  0  0  0  0  0  0  0  0
   19.1740   69.7440    1.7470 C   0  0  0  0  0  0  0  0  0  0  0  0
   18.3960   69.8860    0.8170 O   0  0  0  0  0  0  0  0  0  0  0  0
   19.6510   69.3810    3.6780 H   0  0  0  0  0  0  0  0  0  0  0  0
   20.9080   69.9110    1.6000 S   0  0  0  0  0  0  0  0  0  0  0  0
   21.3710   69.5350    3.3010 C   0  0  0  0  0  1  0  0  0  0  0  0
   15.4500   68.0010    3.5970 C   0  0  0  0  0  2  0  0  0  0  0  0
   15.5070   67.7100    5.0930 C   0  0  1  0  0  3  0  0  0  0  0  0
   14.6680   68.0440    6.1760 C   0  0  2  0  0  0  0  0  0  0  0  0
   15.5530   66.3230    5.8190 C   0  0  2  0  0  0  0  0  0  0  0  0
   13.4880   67.0880    6.3260 C   0  0  0  0  0  2  0  0  0  0  0  0
   15.9530   67.3290    7.0160 C   0  0  1  0  0  3  0  0  0  0  0  0
   14.0970   65.9390    5.9860 C   0  0  0  0  0  2  0  0  0  0  0  0
   17.2600   68.2530    7.1130 C   0  0  0  0  0  0  0  0  0  0  0  0
   17.1890   69.5490    7.6700 C   0  0  0  0  0  3  0  0  0  0  0  0
   18.5380   67.8270    6.7030 C   0  0  0  0  0  3  0  0  0  0  0  0
   18.3130   70.3730    7.8010 C   0  0  0  0  0  3  0  0  0  0  0  0
   19.6690   68.6470    6.8290 C   0  0  0  0  0  3  0  0  0  0  0  0
   19.5550   69.9210    7.3770 C   0  0  0  0  0  3  0  0  0  0  0  0
  2  1  2  0  0  0  0
  2  9  1  0  0  0  0
  3  1  1  0  0  0  0
  3  6  1  0  0  0  0
  4  3  1  0  0  0  0
  5  4  2  0  0  0  0
  7  4  1  0  0  0  0
  7  8  1  0  0  0  0
 10  9  1  6  0  0  0
 10 12  1  0  0  0  0
 10 11  1  0  0  0  0
 11 13  1  1  0  0  0
 11 14  1  0  0  0  0
 12 15  1  6  0  0  0
 12 11  1  0  0  0  0
 12 14  1  0  0  0  0
 14 16  1  6  0  0  0
 15 13  1  0  0  0  0
 16 17  1  0  0  0  0
 17 19  2  0  0  0  0
 18 20  1  0  0  0  0
 18 16  2  0  0  0  0
 20 21  2  0  0  0  0
 21 19  1  0  0  0  0
M  END
>  <MODEL>
17

>  <REMARK>
 VINA RESULT:    -7.409      1.806      4.518
 INTER + INTRA:          -9.917
 INTER:                  -9.047
 INTRA:                  -0.870
 UNBOUND:                -0.342
 SMILES CSC(=O)N/C=C/CC1=C2C=C[C@@H]1[C@H]2c1ccccc1
 SMILES IDX 6 1 7 2 5 3 3 4 4 5 2 7 1 8 8 9 9 10 10 11 13 12 11 13 14 14
 SMILES IDX 12 15 15 16 16 17 20 18 17 19 19 20 18 21
 H PARENT 5 6

>  <TORSDO>
F 5

$$$$
research/ai4chem/closed_loop/ipf_cycle1/docking_1vjy/cand_0010_dock.pdbqt
 OpenBabel03012623503D

 21 24  0  0  1  0  0  0  0  0999 V2000
   15.6280   67.3770    3.8420 C   0  0  0  0  0  3  0  0  0  0  0  0
   16.6730   67.9520    4.4460 C   0  0  0  0  0  3  0  0  0  0  0  0
   14.6680   66.7380    4.5690 N   0  0  0  0  0  0  0  0  0  0  0  0
   14.1390   65.5120    4.2610 C   0  0  0  0  0  0  0  0  0  0  0  0
   14.4030   64.8170    3.2920 O   0  0  0  0  0  0  0  0  0  0  0  0
   14.3330   67.1510    5.4280 H   0  0  0  0  0  0  0  0  0  0  0  0
   12.9880   65.0620    5.4970 S   0  0  0  0  0  0  0  0  0  0  0  0
   11.8630   64.0780    4.4890 C   0  0  0  0  0  1  0  0  0  0  0  0
   17.8070   68.5970    3.7230 C   0  0  0  0  0  2  0  0  0  0  0  0
   18.9800   68.8340    4.6680 C   0  0  1  0  0  3  0  0  0  0  0  0
   20.2880   68.3100    4.7360 C   0  0  2  0  0  0  0  0  0  0  0  0
   19.7200   70.1760    4.9920 C   0  0  2  0  0  0  0  0  0  0  0  0
   21.2630   69.0270    3.8070 C   0  0  0  0  0  2  0  0  0  0  0  0
   20.2640   69.2140    6.1690 C   0  0  1  0  0  3  0  0  0  0  0  0
   20.7930   70.2810    3.9280 C   0  0  0  0  0  2  0  0  0  0  0  0
   19.4080   68.5410    7.3470 C   0  0  0  0  0  0  0  0  0  0  0  0
   19.7780   67.2870    7.8820 C   0  0  0  0  0  3  0  0  0  0  0  0
   18.2920   69.1610    7.9400 C   0  0  0  0  0  3  0  0  0  0  0  0
   19.0760   66.6830    8.9320 C   0  0  0  0  0  3  0  0  0  0  0  0
   17.5820   68.5610    8.9910 C   0  0  0  0  0  3  0  0  0  0  0  0
   17.9750   67.3210    9.4860 C   0  0  0  0  0  3  0  0  0  0  0  0
  1  2  2  0  0  0  0
  1  3  1  0  0  0  0
  3  6  1  0  0  0  0
  4  3  1  0  0  0  0
  4  7  1  0  0  0  0
  5  4  2  0  0  0  0
  8  7  1  0  0  0  0
  9  2  1  0  0  0  0
 10  9  1  6  0  0  0
 10 11  1  0  0  0  0
 10 12  1  0  0  0  0
 11 13  1  6  0  0  0
 11 12  1  0  0  0  0
 11 14  1  0  0  0  0
 12 15  1  6  0  0  0
 12 14  1  0  0  0  0
 13 15  1  0  0  0  0
 14 16  1  1  0  0  0
 16 17  2  0  0  0  0
 16 18  1  0  0  0  0
 17 19  1  0  0  0  0
 18 20  2  0  0  0  0
 19 21  2  0  0  0  0
 20 21  1  0  0  0  0
M  END
>  <MODEL>
18

>  <REMARK>
 VINA RESULT:    -7.396      3.884      6.798
 INTER + INTRA:          -9.900
 INTER:                  -9.156
 INTRA:                  -0.745
 UNBOUND:                -0.342
 SMILES CSC(=O)N/C=C/CC1=C2C=C[C@@H]1[C@H]2c1ccccc1
 SMILES IDX 6 1 7 2 5 3 3 4 4 5 2 7 1 8 8 9 9 10 10 11 13 12 11 13 14 14
 SMILES IDX 12 15 15 16 16 17 20 18 17 19 19 20 18 21
 H PARENT 5 6

>  <TORSDO>
F 5

$$$$
research/ai4chem/closed_loop/ipf_cycle1/docking_1vjy/cand_0010_dock.pdbqt
 OpenBabel03012623503D

 21 24  0  0  1  0  0  0  0  0999 V2000
   21.1620   69.8110    7.8170 C   0  0  0  0  0  3  0  0  0  0  0  0
   20.1720   70.4220    7.1580 C   0  0  0  0  0  3  0  0  0  0  0  0
   21.0140   69.4600    9.1260 N   0  0  0  0  0  0  0  0  0  0  0  0
   21.0720   70.3340   10.1810 C   0  0  0  0  0  0  0  0  0  0  0  0
   21.2920   71.5340   10.1340 O   0  0  0  0  0  0  0  0  0  0  0  0
   20.8020   68.5030    9.3680 H   0  0  0  0  0  0  0  0  0  0  0  0
   20.7720   69.4560   11.6630 S   0  0  0  0  0  0  0  0  0  0  0  0
   19.8570   68.0600   10.9820 C   0  0  0  0  0  1  0  0  0  0  0  0
   20.2790   70.9130    5.7530 C   0  0  0  0  0  2  0  0  0  0  0  0
   19.6710   69.9050    4.7840 C   0  0  1  0  0  3  0  0  0  0  0  0
   19.1280   70.0170    3.4870 C   0  0  2  0  0  0  0  0  0  0  0  0
   20.3200   68.6130    4.1810 C   0  0  2  0  0  0  0  0  0  0  0  0
   20.1930   69.9920    2.3950 C   0  0  0  0  0  2  0  0  0  0  0  0
   18.7630   68.3950    3.8150 C   0  0  1  0  0  3  0  0  0  0  0  0
   21.0380   69.0990    2.9380 C   0  0  0  0  0  2  0  0  0  0  0  0
   17.5430   68.1970    4.8370 C   0  0  0  0  0  0  0  0  0  0  0  0
   16.2070   68.2020    4.3770 C   0  0  0  0  0  3  0  0  0  0  0  0
   17.7210   67.9660    6.2150 C   0  0  0  0  0  3  0  0  0  0  0  0
   15.1180   68.0010    5.2340 C   0  0  0  0  0  3  0  0  0  0  0  0
   16.6350   67.7650    7.0800 C   0  0  0  0  0  3  0  0  0  0  0  0
   15.3330   67.7840    6.5880 C   0  0  0  0  0  3  0  0  0  0  0  0
  1  3  1  0  0  0  0
  2  1  2  0  0  0  0
  3  6  1  0  0  0  0
  3  4  1  0  0  0  0
  4  7  1  0  0  0  0
  5  4  2  0  0  0  0
  8  7  1  0  0  0  0
  9  2  1  0  0  0  0
 10  9  1  6  0  0  0
 11 13  1  6  0  0  0
 11 14  1  0  0  0  0
 11 12  1  0  0  0  0
 11 10  1  0  0  0  0
 12 15  1  6  0  0  0
 12 10  1  0  0  0  0
 13 15  1  0  0  0  0
 14 12  1  0  0  0  0
 14 16  1  1  0  0  0
 16 18  1  0  0  0  0
 17 16  2  0  0  0  0
 17 19  1  0  0  0  0
 18 20  2  0  0  0  0
 19 21  2  0  0  0  0
 21 20  1  0  0  0  0
M  END
>  <MODEL>
19

>  <REMARK>
 VINA RESULT:    -7.293      4.217      6.192
 INTER + INTRA:          -9.768
 INTER:                  -9.076
 INTRA:                  -0.692
 UNBOUND:                -0.342
 SMILES CSC(=O)N/C=C/CC1=C2C=C[C@@H]1[C@H]2c1ccccc1
 SMILES IDX 6 1 7 2 5 3 3 4 4 5 2 7 1 8 8 9 9 10 10 11 13 12 11 13 14 14
 SMILES IDX 12 15 15 16 16 17 20 18 17 19 19 20 18 21
 H PARENT 5 6

>  <TORSDO>
F 5

$$$$
research/ai4chem/closed_loop/ipf_cycle1/docking_1vjy/cand_0010_dock.pdbqt
 OpenBabel03012623503D

 21 24  0  0  1  0  0  0  0  0999 V2000
   14.7330   67.4250    6.4520 C   0  0  0  0  0  3  0  0  0  0  0  0
   16.0040   67.8360    6.4030 C   0  0  0  0  0  3  0  0  0  0  0  0
   14.2870   66.4390    5.6230 N   0  0  0  0  0  0  0  0  0  0  0  0
   13.1300   65.7270    5.8050 C   0  0  0  0  0  0  0  0  0  0  0  0
   12.3410   65.8260    6.7310 O   0  0  0  0  0  0  0  0  0  0  0  0
   14.8010   66.2230    4.7800 H   0  0  0  0  0  0  0  0  0  0  0  0
   12.9320   64.6130    4.4720 S   0  0  0  0  0  0  0  0  0  0  0  0
   14.6220   64.6240    3.8450 C   0  0  0  0  0  1  0  0  0  0  0  0
   16.5520   68.9620    7.2130 C   0  0  0  0  0  2  0  0  0  0  0  0
   17.9730   68.6530    7.6710 C   0  0  1  0  0  3  0  0  0  0  0  0
   18.7820   69.1480    8.7150 C   0  0  2  0  0  0  0  0  0  0  0  0
   18.5770   67.2810    8.1270 C   0  0  2  0  0  0  0  0  0  0  0  0
   18.5090   68.4640   10.0510 C   0  0  0  0  0  2  0  0  0  0  0  0
   19.9100   68.1670    7.9150 C   0  0  1  0  0  3  0  0  0  0  0  0
   18.2800   67.2150    9.6120 C   0  0  0  0  0  2  0  0  0  0  0  0
   20.4530   68.7910    6.5410 C   0  0  0  0  0  0  0  0  0  0  0  0
   21.2620   69.9490    6.5440 C   0  0  0  0  0  3  0  0  0  0  0  0
   20.2060   68.2130    5.2810 C   0  0  0  0  0  3  0  0  0  0  0  0
   21.7820   70.5040    5.3690 C   0  0  0  0  0  3  0  0  0  0  0  0
   20.7220   68.7640    4.0990 C   0  0  0  0  0  3  0  0  0  0  0  0
   21.5090   69.9110    4.1430 C   0  0  0  0  0  3  0  0  0  0  0  0
  2  1  2  0  0  0  0
  2  9  1  0  0  0  0
  3  4  1  0  0  0  0
  3  1  1  0  0  0  0
  4  5  2  0  0  0  0
  6  3  1  0  0  0  0
  7  4  1  0  0  0  0
  8  7  1  0  0  0  0
 10  9  1  1  0  0  0
 10 12  1  0  0  0  0
 10 11  1  0  0  0  0
 11 13  1  1  0  0  0
 12 11  1  0  0  0  0
 12 15  1  1  0  0  0
 14 16  1  6  0  0  0
 14 12  1  0  0  0  0
 14 11  1  0  0  0  0
 15 13  1  0  0  0  0
 16 17  1  0  0  0  0
 18 16  2  0  0  0  0
 19 17  2  0  0  0  0
 20 21  2  0  0  0  0
 20 18  1  0  0  0  0
 21 19  1  0  0  0  0
M  END
>  <MODEL>
20

>  <REMARK>
 VINA RESULT:    -7.219      4.238      7.452
 INTER + INTRA:          -9.672
 INTER:                  -8.940
 INTRA:                  -0.732
 UNBOUND:                -0.342
 SMILES CSC(=O)N/C=C/CC1=C2C=C[C@@H]1[C@H]2c1ccccc1
 SMILES IDX 6 1 7 2 5 3 3 4 4 5 2 7 1 8 8 9 9 10 10 11 13 12 11 13 14 14
 SMILES IDX 12 15 15 16 16 17 20 18 17 19 19 20 18 21
 H PARENT 5 6

>  <TORSDO>
F 5

$$$$
